

        *** GPGPU-Sim Simulator Version 3.2.2  [build 0] ***


GPGPU-Sim PTX: simulation mode 0 (can change with PTX_SIM_MODE_FUNC environment variable:
               1=functional simulation only, 0=detailed performance simulator)
GPGPU-Sim: Configuration options:

-network_mode                           1 # Interconnection network mode
-inter_config_file   config_fermi_islip.icnt # Interconnection network config file
-gpgpu_ptx_use_cuobjdump                    1 # Use cuobjdump to extract ptx and sass from binaries
-gpgpu_experimental_lib_support                    0 # Try to extract code from cuda libraries [Broken because of unknown cudaGetExportTable]
-gpgpu_ptx_convert_to_ptxplus                    0 # Convert SASS (native ISA) to ptxplus and run ptxplus
-gpgpu_ptx_force_max_capability                   20 # Force maximum compute capability
-gpgpu_ptx_inst_debug_to_file                    0 # Dump executed instructions' debug information to file
-gpgpu_ptx_inst_debug_file       inst_debug.txt # Executed instructions' debug output file
-gpgpu_ptx_inst_debug_thread_uid                    1 # Thread UID for executed instructions' debug output
-gpgpu_simd_model                       1 # 1 = post-dominator
-gpgpu_shader_core_pipeline              1536:32 # shader core pipeline config, i.e., {<nthread>:<warpsize>}
-gpgpu_tex_cache:l1  4:128:24,L:R:m:N:L,F:128:4,128:2 # per-shader L1 texture cache  (READ-ONLY) config  {<nsets>:<bsize>:<assoc>,<rep>:<wr>:<alloc>:<wr_alloc>,<mshr>:<N>:<merge>,<mq>:<rf>}
-gpgpu_const_cache:l1 64:64:2,L:R:f:N:L,A:2:32,4 # per-shader L1 constant memory cache  (READ-ONLY) config  {<nsets>:<bsize>:<assoc>,<rep>:<wr>:<alloc>:<wr_alloc>,<mshr>:<N>:<merge>,<mq>} 
-gpgpu_cache:il1     4:128:4,L:R:f:N:L,A:2:32,4 # shader L1 instruction cache config  {<nsets>:<bsize>:<assoc>,<rep>:<wr>:<alloc>:<wr_alloc>,<mshr>:<N>:<merge>,<mq>} 
-gpgpu_cache:dl1     32:128:4,L:L:m:N:H,A:32:8,8 # per-shader L1 data cache config  {<nsets>:<bsize>:<assoc>,<rep>:<wr>:<alloc>:<wr_alloc>,<mshr>:<N>:<merge>,<mq> | none}
-gpgpu_cache:dl1PrefL1                 none # per-shader L1 data cache config  {<nsets>:<bsize>:<assoc>,<rep>:<wr>:<alloc>:<wr_alloc>,<mshr>:<N>:<merge>,<mq> | none}
-gpgpu_cache:dl1PreShared                 none # per-shader L1 data cache config  {<nsets>:<bsize>:<assoc>,<rep>:<wr>:<alloc>:<wr_alloc>,<mshr>:<N>:<merge>,<mq> | none}
-gmem_skip_L1D                          0 # global memory access skip L1D cache (implements -Xptxas -dlcm=cg, default=no skip)
-gpgpu_perfect_mem                      0 # enable perfect memory mode (no cache miss)
-n_regfile_gating_group                    4 # group of lanes that should be read/written together)
-gpgpu_clock_gated_reg_file                    0 # enable clock gated reg file for power calculations
-gpgpu_clock_gated_lanes                    0 # enable clock gated lanes for power calculations
-gpgpu_shader_registers                32768 # Number of registers per shader core. Limits number of concurrent CTAs. (default 8192)
-gpgpu_shader_cta                       8 # Maximum number of concurrent CTAs in shader (default 8)
-gpgpu_num_cta_barriers                   16 # Maximum number of named barriers per CTA (default 16)
-gpgpu_n_clusters                      15 # number of processing clusters
-gpgpu_n_cores_per_cluster                    1 # number of simd cores per cluster
-gpgpu_n_cluster_ejection_buffer_size                    8 # number of packets in ejection buffer
-gpgpu_n_ldst_response_buffer_size                    2 # number of response packets in ld/st unit ejection buffer
-gpgpu_shmem_size                   16384 # Size of shared memory per shader core (default 16kB)
-gpgpu_shmem_size                   49152 # Size of shared memory per shader core (default 16kB)
-gpgpu_shmem_size_PrefL1                16384 # Size of shared memory per shader core (default 16kB)
-gpgpu_shmem_size_PrefShared                16384 # Size of shared memory per shader core (default 16kB)
-gpgpu_shmem_num_banks                   32 # Number of banks in the shared memory in each shader core (default 16)
-gpgpu_shmem_limited_broadcast                    0 # Limit shared memory to do one broadcast per cycle (default on)
-gpgpu_shmem_warp_parts                    1 # Number of portions a warp is divided into for shared memory bank conflict check 
-gpgpu_warpdistro_shader                   -1 # Specify which shader core to collect the warp size distribution from
-gpgpu_warp_issue_shader                    0 # Specify which shader core to collect the warp issue distribution from
-gpgpu_local_mem_map                    1 # Mapping from local memory space address to simulated GPU physical address space (default = enabled)
-gpgpu_num_reg_banks                   16 # Number of register banks (default = 8)
-gpgpu_reg_bank_use_warp_id                    0 # Use warp ID in mapping registers to banks (default = off)
-gpgpu_operand_collector_num_units_sp                    6 # number of collector units (default = 4)
-gpgpu_operand_collector_num_units_sfu                    8 # number of collector units (default = 4)
-gpgpu_operand_collector_num_units_mem                    2 # number of collector units (default = 2)
-gpgpu_operand_collector_num_units_gen                    0 # number of collector units (default = 0)
-gpgpu_operand_collector_num_in_ports_sp                    2 # number of collector unit in ports (default = 1)
-gpgpu_operand_collector_num_in_ports_sfu                    1 # number of collector unit in ports (default = 1)
-gpgpu_operand_collector_num_in_ports_mem                    1 # number of collector unit in ports (default = 1)
-gpgpu_operand_collector_num_in_ports_gen                    0 # number of collector unit in ports (default = 0)
-gpgpu_operand_collector_num_out_ports_sp                    2 # number of collector unit in ports (default = 1)
-gpgpu_operand_collector_num_out_ports_sfu                    1 # number of collector unit in ports (default = 1)
-gpgpu_operand_collector_num_out_ports_mem                    1 # number of collector unit in ports (default = 1)
-gpgpu_operand_collector_num_out_ports_gen                    0 # number of collector unit in ports (default = 0)
-gpgpu_coalesce_arch                   13 # Coalescing arch (default = 13, anything else is off for now)
-gpgpu_num_sched_per_core                    2 # Number of warp schedulers per core
-gpgpu_max_insn_issue_per_warp                    1 # Max number of instructions that can be issued per warp in one cycle by scheduler
-gpgpu_simt_core_sim_order                    1 # Select the simulation order of cores in a cluster (0=Fix, 1=Round-Robin)
-gpgpu_pipeline_widths        2,1,1,2,1,1,2 # Pipeline widths ID_OC_SP,ID_OC_SFU,ID_OC_MEM,OC_EX_SP,OC_EX_SFU,OC_EX_MEM,EX_WB
-gpgpu_num_sp_units                     2 # Number of SP units (default=1)
-gpgpu_num_sfu_units                    1 # Number of SF units (default=1)
-gpgpu_num_mem_units                    1 # Number if ldst units (default=1) WARNING: not hooked up to anything
-gpgpu_scheduler                      lrr # Scheduler configuration: < lrr | gto | two_level_active > If two_level_active:<num_active_warps>:<inner_prioritization>:<outer_prioritization>For complete list of prioritization values see shader.h enum scheduler_prioritization_typeDefault: gto
-gpgpu_dram_scheduler                    1 # 0 = fifo, 1 = FR-FCFS (defaul)
-gpgpu_dram_partition_queues              8:8:8:8 # i2$:$2d:d2$:$2i
-l2_ideal                               0 # Use a ideal L2 cache that always hit
-gpgpu_cache:dl2     64:128:8,L:B:m:W:L,A:32:4,4:0,32 # unified banked L2 data cache config  {<nsets>:<bsize>:<assoc>,<rep>:<wr>:<alloc>:<wr_alloc>,<mshr>:<N>:<merge>,<mq>}
-gpgpu_cache:dl2_texture_only                    0 # L2 cache used for texture only
-gpgpu_n_mem                            6 # number of memory modules (e.g. memory controllers) in gpu
-gpgpu_n_sub_partition_per_mchannel                    2 # number of memory subpartition in each memory module
-gpgpu_n_mem_per_ctrlr                    2 # number of memory chips per memory controller
-gpgpu_memlatency_stat                   14 # track and display latency statistics 0x2 enables MC, 0x4 enables queue logs
-gpgpu_frfcfs_dram_sched_queue_size                   16 # 0 = unlimited (default); # entries per chip
-gpgpu_dram_return_queue_size                  116 # 0 = unlimited (default); # entries per chip
-gpgpu_dram_buswidth                    4 # default = 4 bytes (8 bytes per cycle at DDR)
-gpgpu_dram_burst_length                    8 # Burst length of each DRAM request (default = 4 data bus cycle)
-dram_data_command_freq_ratio                    4 # Frequency ratio between DRAM data bus and command bus (default = 2 times, i.e. DDR)
-gpgpu_dram_timing_opt nbk=16:CCD=2:RRD=6:RCD=12:RAS=28:RP=12:RC=40: CL=12:WL=4:CDLR=5:WR=12:nbkgrp=4:CCDL=3:RTPL=2 # DRAM timing parameters = {nbk:tCCD:tRRD:tRCD:tRAS:tRP:tRC:CL:WL:tCDLR:tWR:nbkgrp:tCCDL:tRTPL}
-rop_latency                          120 # ROP queue latency (default 85)
-dram_latency                         100 # DRAM latency (default 30)
-gpgpu_mem_addr_mapping dramid@8;00000000.00000000.00000000.00000000.0000RRRR.RRRRRRRR.BBBCCCCB.CCSSSSSS # mapping memory address to dram model {dramid@<start bit>;<memory address map>}
-gpgpu_mem_addr_test                    0 # run sweep test to check address mapping for aliased address
-gpgpu_mem_address_mask                    1 # 0 = old addressing mask, 1 = new addressing mask, 2 = new add. mask + flipped bank sel and chip sel bits
-gpuwattch_xml_file  gpuwattch_gtx480.xml # GPUWattch XML file
-power_simulation_enabled                    1 # Turn on power simulator (1=On, 0=Off)
-power_per_cycle_dump                    0 # Dump detailed power output each cycle
-power_trace_enabled                    0 # produce a file for the power trace (1=On, 0=Off)
-power_trace_zlevel                     6 # Compression level of the power trace output log (0=no comp, 9=highest)
-steady_power_levels_enabled                    0 # produce a file for the steady power levels (1=On, 0=Off)
-steady_state_definition                  8:4 # allowed deviation:number of samples
-gpgpu_max_cycle                        0 # terminates gpu simulation early (0 = no limit)
-gpgpu_max_insn                         0 # terminates gpu simulation early (0 = no limit)
-gpgpu_max_cta                          0 # terminates gpu simulation early (0 = no limit)
-gpgpu_runtime_stat                   500 # display runtime statistics such as dram utilization {<freq>:<flag>}
-liveness_message_freq                    1 # Minimum number of seconds between simulation liveness messages (0 = always print)
-gpgpu_flush_l1_cache                    0 # Flush L1 cache at the end of each kernel call
-gpgpu_flush_l2_cache                    0 # Flush L2 cache at the end of each kernel call
-gpgpu_deadlock_detect                    1 # Stop the simulation at deadlock (1=on (default), 0=off)
-gpgpu_ptx_instruction_classification                    0 # if enabled will classify ptx instruction types per kernel (Max 255 kernels now)
-gpgpu_ptx_sim_mode                     0 # Select between Performance (default) or Functional simulation (1)
-gpgpu_clock_domains 700.0:700.0:700.0:924.0 # Clock Domain Frequencies in MhZ {<Core Clock>:<ICNT Clock>:<L2 Clock>:<DRAM Clock>}
-gpgpu_max_concurrent_kernel                    8 # maximum kernels that can run concurrently on GPU
-gpgpu_cflog_interval                    0 # Interval between each snapshot in control flow logger
-visualizer_enabled                     1 # Turn on visualizer output (1=On, 0=Off)
-visualizer_outputfile                 NULL # Specifies the output log file for visualizer
-visualizer_zlevel                      6 # Compression level of the visualizer output log (0=no comp, 9=highest)
-trace_enabled                          0 # Turn on traces
-trace_components                    none # comma seperated list of traces to enable. Complete list found in trace_streams.tup. Default none
-trace_sampling_core                    0 # The core which is printed using CORE_DPRINTF. Default 0
-trace_sampling_memory_partition                   -1 # The memory partition which is printed using MEMPART_DPRINTF. Default -1 (i.e. all)
-enable_ptx_file_line_stats                    1 # Turn on PTX source line statistic profiling. (1 = On)
-ptx_line_stats_filename gpgpu_inst_stats.txt # Output file for PTX source line statistics.
-save_embedded_ptx                      0 # saves ptx files embedded in binary as <n>.ptx
-keep                                   0 # keep intermediate files created by GPGPU-Sim when interfacing with external programs
-gpgpu_ptx_save_converted_ptxplus                    0 # Saved converted ptxplus to a file
-ptx_opcode_latency_int         4,13,4,5,145 # Opcode latencies for integers <ADD,MAX,MUL,MAD,DIV>Default 1,1,19,25,145
-ptx_opcode_latency_fp          4,13,4,5,39 # Opcode latencies for single precision floating points <ADD,MAX,MUL,MAD,DIV>Default 1,1,1,1,30
-ptx_opcode_latency_dp         8,19,8,8,330 # Opcode latencies for double precision floating points <ADD,MAX,MUL,MAD,DIV>Default 8,8,8,8,335
-ptx_opcode_initiation_int            1,2,2,1,8 # Opcode initiation intervals for integers <ADD,MAX,MUL,MAD,DIV>Default 1,1,4,4,32
-ptx_opcode_initiation_fp            1,2,1,1,4 # Opcode initiation intervals for single precision floating points <ADD,MAX,MUL,MAD,DIV>Default 1,1,1,1,5
-ptx_opcode_initiation_dp         8,16,8,8,130 # Opcode initiation intervals for double precision floating points <ADD,MAX,MUL,MAD,DIV>Default 8,8,8,8,130
DRAM Timing Options:
nbk                                    16 # number of banks
CCD                                     2 # column to column delay
RRD                                     6 # minimal delay between activation of rows in different banks
RCD                                    12 # row to column delay
RAS                                    28 # time needed to activate row
RP                                     12 # time needed to precharge (deactivate) row
RC                                     40 # row cycle time
CDLR                                    5 # switching from write to read (changes tWTR)
WR                                     12 # last data-in to row precharge
CL                                     12 # CAS latency
WL                                      4 # Write latency
nbkgrp                                  4 # number of bank groups
CCDL                                    3 # column to column delay between accesses to different bank groups
RTPL                                    2 # read to precharge delay between accesses to different bank groups
Total number of memory sub partition = 12
addr_dec_mask[CHIP]  = 0000000000000000 	high:64 low:0
addr_dec_mask[BK]    = 000000000000e100 	high:16 low:8
addr_dec_mask[ROW]   = 000000000fff0000 	high:28 low:16
addr_dec_mask[COL]   = 0000000000001eff 	high:13 low:0
addr_dec_mask[BURST] = 000000000000003f 	high:6 low:0
sub_partition_id_mask = 0000000000000100
GPGPU-Sim uArch: clock freqs: 700000000.000000:700000000.000000:700000000.000000:924000000.000000
GPGPU-Sim uArch: clock periods: 0.00000000142857142857:0.00000000142857142857:0.00000000142857142857:0.00000000108225108225
*** Initializing Memory Statistics ***
GPGPU-Sim uArch: interconnect node map (shaderID+MemID to icntID)
GPGPU-Sim uArch: Memory nodes ID start from index: 15
GPGPU-Sim uArch:    0   1   2   3   4
GPGPU-Sim uArch:    5   6   7   8   9
GPGPU-Sim uArch:   10  11  12  13  14
GPGPU-Sim uArch:   15  16  17  18  19
GPGPU-Sim uArch:   20  21  22  23  24
GPGPU-Sim uArch:   25  26
GPGPU-Sim uArch: interconnect node reverse map (icntID to shaderID+MemID)
GPGPU-Sim uArch: Memory nodes start from ID: 15
GPGPU-Sim uArch:    0   1   2   3   4
GPGPU-Sim uArch:    5   6   7   8   9
GPGPU-Sim uArch:   10  11  12  13  14
GPGPU-Sim uArch:   15  16  17  18  19
GPGPU-Sim uArch:   20  21  22  23  24
GPGPU-Sim uArch:   25  26
800fcde8aa5ec03444603f3876893755  /home/gpgpu-sim/rodinia_3.1/cuda/pathfinder/pathfinder
GPGPU-Sim uArch: performance model initialization complete.
GPGPU-Sim PTX: __cudaRegisterFatBinary, fat_cubin_handle = 1, filename=pathfinder.cu
self exe links to: /home/gpgpu-sim/rodinia_3.1/cuda/pathfinder/pathfinder
Running md5sum using "md5sum /home/gpgpu-sim/rodinia_3.1/cuda/pathfinder/pathfinder "
Running cuobjdump using "$CUDA_INSTALL_PATH/bin/cuobjdump -ptx -elf -sass /home/gpgpu-sim/rodinia_3.1/cuda/pathfinder/pathfinder > _cuobjdump_complete_output_0Kd0ff"
Parsing file _cuobjdump_complete_output_0Kd0ff
######### cuobjdump parser ########
## Adding new section ELF
Adding arch: sm_10
Adding identifier: pathfinder.cu
## Adding new section PTX
Adding ptx filename: _cuobjdump_1.ptx
Adding arch: sm_10
Adding identifier: pathfinder.cu
Done parsing!!!
GPGPU-Sim PTX: __cudaRegisterFunction _Z14dynproc_kerneliPiS_S_iiii : hostFun 0x0x401450, fat_cubin_handle = 1
GPGPU-Sim PTX: allocating shared region for "__cuda___cuda_local_var_15390_37_non_const_prev48" from 0x0 to 0x400 (shared memory space)
GPGPU-Sim PTX: allocating shared region for "__cuda___cuda_local_var_15391_37_non_const_result1072" from 0x400 to 0x800 (shared memory space)
GPGPU-Sim PTX: instruction assembly for function '_Z14dynproc_kerneliPiS_S_iiii'...   done.
GPGPU-Sim PTX: finding reconvergence points for '_Z14dynproc_kerneliPiS_S_iiii'...
GPGPU-Sim PTX: Finding dominators for '_Z14dynproc_kerneliPiS_S_iiii'...
GPGPU-Sim PTX: Finding immediate dominators for '_Z14dynproc_kerneliPiS_S_iiii'...
GPGPU-Sim PTX: Finding postdominators for '_Z14dynproc_kerneliPiS_S_iiii'...
GPGPU-Sim PTX: Finding immediate postdominators for '_Z14dynproc_kerneliPiS_S_iiii'...
GPGPU-Sim PTX: pre-decoding instructions for '_Z14dynproc_kerneliPiS_S_iiii'...
GPGPU-Sim PTX: reconvergence points for _Z14dynproc_kerneliPiS_S_iiii...
GPGPU-Sim PTX:  1 (potential) branch divergence @  PC=0x0a0 (_1.ptx:88) @%p1 bra $Lt_0_7938;
GPGPU-Sim PTX:    immediate post dominator      @  PC=0x0f8 (_1.ptx:101) mov.u64 %rd1, __cuda___cuda_local_var_15390_37_non_const_prev48;
GPGPU-Sim PTX:  2 (potential) branch divergence @  PC=0x118 (_1.ptx:106) @%p2 bra $Lt_0_11010;
GPGPU-Sim PTX:    immediate post dominator      @  PC=0x3f8 (_1.ptx:214) @!%p10 bra $Lt_0_10498;
GPGPU-Sim PTX:  3 (potential) branch divergence @  PC=0x248 (_1.ptx:147) @%p7 bra $Lt_0_9218;
GPGPU-Sim PTX:    immediate post dominator      @  PC=0x328 (_1.ptx:179) bar.sync 0;
GPGPU-Sim PTX:  4 (potential) branch divergence @  PC=0x338 (_1.ptx:182) @%p8 bra $Lt_0_11266;
GPGPU-Sim PTX:    immediate post dominator      @  PC=0x3f8 (_1.ptx:214) @!%p10 bra $Lt_0_10498;
GPGPU-Sim PTX:  5 (potential) branch divergence @  PC=0x360 (_1.ptx:187) @!%p9 bra $Lt_0_9730;
GPGPU-Sim PTX:    immediate post dominator      @  PC=0x398 (_1.ptx:197) bar.sync 0;
GPGPU-Sim PTX:  6 (potential) branch divergence @  PC=0x3b0 (_1.ptx:201) @%p13 bra $Lt_0_8962;
GPGPU-Sim PTX:    immediate post dominator      @  PC=0x3f8 (_1.ptx:214) @!%p10 bra $Lt_0_10498;
GPGPU-Sim PTX:  7 (potential) branch divergence @  PC=0x3b8 (_1.ptx:202) bra.uni $Lt_0_258;
GPGPU-Sim PTX:    immediate post dominator      @  PC=0x3f8 (_1.ptx:214) @!%p10 bra $Lt_0_10498;
GPGPU-Sim PTX:  8 (potential) branch divergence @  PC=0x3e0 (_1.ptx:208) bra.uni $Lt_0_258;
GPGPU-Sim PTX:    immediate post dominator      @  PC=0x3f8 (_1.ptx:214) @!%p10 bra $Lt_0_10498;
GPGPU-Sim PTX:  9 (potential) branch divergence @  PC=0x3f8 (_1.ptx:214) @!%p10 bra $Lt_0_10498;
GPGPU-Sim PTX:    immediate post dominator      @  PC=0x448 (_1.ptx:227) exit;
GPGPU-Sim PTX: ... end of reconvergence points for _Z14dynproc_kerneliPiS_S_iiii
GPGPU-Sim PTX: ... done pre-decoding instructions for '_Z14dynproc_kerneliPiS_S_iiii'.
GPGPU-Sim PTX: finished parsing EMBEDDED .ptx file _1.ptx
Adding _cuobjdump_1.ptx with cubin handle 1
GPGPU-Sim PTX: extracting embedded .ptx to temporary file "_ptx_CQ53py"
Running: cat _ptx_CQ53py | sed 's/.version 1.5/.version 1.4/' | sed 's/, texmode_independent//' | sed 's/\(\.extern \.const\[1\] .b8 \w\+\)\[\]/\1\[1\]/' | sed 's/const\[.\]/const\[0\]/g' > _ptx2_B3Y8zR
GPGPU-Sim PTX: generating ptxinfo using "$CUDA_INSTALL_PATH/bin/ptxas --gpu-name=sm_20 -v _ptx2_B3Y8zR --output-file  /dev/null 2> _ptx_CQ53pyinfo"
GPGPU-Sim PTX: Kernel '_Z14dynproc_kerneliPiS_S_iiii' : regs=13, lmem=0, smem=2048, cmem=80
GPGPU-Sim PTX: removing ptxinfo using "rm -f _ptx_CQ53py _ptx2_B3Y8zR _ptx_CQ53pyinfo"
GPGPU-Sim PTX: loading globals with explicit initializers... 
GPGPU-Sim PTX: finished loading globals (0 bytes total).
GPGPU-Sim PTX: loading constants with explicit initializers...  done.
5 4 5 7 0 3 0 8 2 2 6 3 8 9 7 5 9 0 6 9 5 0 1 5 9 4 4 3 9 9 0 4 3 7 3 6 0 5 6 4 7 3 9 5 4 9 0 3 9 9 5 4 1 6 9 2 1 6 5 2 5 7 8 0 6 1 8 7 6 5 1 5 0 3 2 4 2 5 8 1 6 5 7 7 3 9 0 6 5 7 8 0 7 8 2 3 1 1 2 9 6 6 4 6 9 9 2 1 4 2 4 0 7 1 9 1 2 9 7 7 9 8 9 6 6 2 1 8 3 4 7 9 0 4 7 1 5 9 2 1 2 8 1 1 9 2 4 2 4 2 1 3 2 1 1 8 3 4 8 6 8 8 7 0 4 4 1 9 5 5 0 9 3 3 3 5 7 7 9 1 1 0 4 3 3 7 4 6 2 4 4 2 4 1 5 0 7 6 9 5 2 1 6 7 6 9 2 4 7 3 5 0 4 2 6 9 1 0 6 3 6 0 8 1 4 3 1 1 1 3 8 5 6 5 3 5 4 7 9 3 1 6 4 7 8 0 6 0 2 4 5 8 5 5 1 1 8 5 2 0 0 3 5 8 8 0 3 2 8 2 6 1 9 2 0 9 2 6 1 6 1 9 6 8 4 0 9 5 7 3 7 7 6 4 5 6 5 1 9 5 3 7 8 4 9 8 6 3 4 9 1 7 8 7 7 5 7 8 2 6 2 9 3 0 3 1 7 0 2 8 5 7 7 3 4 6 3 0 1 8 1 4 7 2 1 5 7 1 3 1 7 7 0 3 0 5 6 9 6 0 7 3 9 4 9 3 2 2 5 5 2 7 9 0 1 2 7 8 5 2 1 5 0 1 0 2 8 6 1 4 8 8 0 7 4 9 3 8 3 0 3 6 9 4 8 0 6 7 0 2 9 1 9 9 2 9 3 1 7 4 7 5 4 7 4 0 8 7 8 4 0 1 2 9 7 2 0 4 9 0 8 8 2 7 0 6 8 3 9 5 8 9 2 4 8 6 5 9 6 3 3 8 7 7 7 4 9 7 0 8 0 0 6 2 9 8 0 7 2 0 4 2 1 6 6 9 5 3 8 3 9 3 1 8 0 8 4 9 8 5 7 8 7 6 0 7 4 2 6 8 4 1 0 5 7 9 5 4 4 3 7 3 7 8 3 9 9 8 9 7 5 8 5 2 4 7 1 1 9 8 9 4 9 2 1 8 3 6 3 7 2 2 3 1 3 6 0 2 4 1 1 1 0 8 4 4 5 5 7 6 5 7 2 4 1 4 5 4 2 0 3 6 2 6 7 5 5 0 9 1 1 2 3 1 0 9 8 7 6 5 6 2 4 0 8 7 6 3 3 9 3 7 7 8 5 7 5 2 9 7 4 0 9 7 4 2 8 4 1 4 1 7 6 8 0 7 5 6 0 9 7 6 6 5 6 3 4 1 6 3 0 0 3 0 9 9 4 7 3 5 3 7 5 0 5 5 9 0 3 9 9 1 7 7 8 5 3 2 9 9 5 9 1 0 1 2 2 5 1 7 3 4 4 8 6 9 3 5 2 8 7 3 9 6 1 9 2 4 1 1 5 8 2 6 9 4 8 3 9 1 0 2 5 5 2 2 6 7 9 8 6 6 2 5 3 5 5 7 1 8 8 6 7 2 4 8 6 4 1 6 5 3 0 0 8 3 4 7 0 4 5 6 2 9 4 7 4 1 4 5 1 4 3 8 7 7 8 3 1 1 1 6 5 4 9 5 9 5 2 9 1 0 8 4 9 4 1 6 7 8 3 8 2 7 7 9 4 7 5 8 9 8 4 6 2 5 3 1 3 8 3 4 8 3 8 9 7 2 7 6 0 1 4 4 8 3 4 4 1 1 2 2 9 9 0 2 6 3 5 9 1 8 4 1 3 4 3 0 6 2 6 8 3 3 3 3 6 9 0 7 0 2 1 1 3 1 5 0 7 1 1 0 1 7 4 5 2 7 7 0 9 6 9 5 9 4 0 5 3 0 5 5 5 8 6 0 2 4 2 9 7 4 1 8 1 5 5 5 4 3 6 6 1 7 1 0 1 3 7 6 4 4 3 1 3 1 1 7 5 6 8 2 2 9 3 3 5 8 9 1 3 7 7 4 6 8 6 7 2 6 5 8 0 0 1 5 1 4 2 7 0 0 1 2 2 4 8 9 5 9 0 0 6 8 7 2 8 3 1 0 1 8 0 4 8 1 9 9 8 4 
8 8 6 2 3 8 6 1 9 3 2 0 4 0 8 1 2 6 6 5 9 8 5 1 4 5 5 3 4 3 9 5 3 6 7 6 6 5 9 6 1 1 6 5 1 6 8 5 4 4 2 3 4 9 5 8 4 0 4 1 5 3 6 8 1 5 7 0 2 8 8 3 0 6 0 3 2 8 1 6 5 5 2 9 5 9 0 9 1 6 0 6 1 8 4 5 5 3 5 8 2 3 1 4 1 2 9 5 2 0 1 7 8 5 9 3 4 1 2 5 7 5 1 8 3 8 3 9 3 0 9 5 5 2 9 6 6 1 1 9 3 5 6 1 2 7 4 7 8 9 4 5 6 8 6 9 8 1 0 1 2 1 7 9 4 8 8 0 1 9 9 5 6 8 6 9 5 1 8 6 2 2 1 8 2 9 9 0 1 2 2 5 3 1 4 7 1 2 0 3 4 1 8 2 9 4 3 7 7 1 3 9 6 6 9 8 6 9 1 9 3 3 4 6 4 8 6 5 3 8 0 9 9 8 1 9 3 5 8 2 8 3 2 6 9 3 7 7 2 8 6 7 3 2 4 9 3 2 6 6 0 7 5 9 5 8 0 0 5 0 3 6 3 7 4 5 0 1 4 5 1 3 2 6 5 8 5 8 2 2 6 4 1 3 4 6 2 6 9 7 9 4 5 2 1 0 9 3 3 4 0 7 7 5 3 4 5 9 3 8 3 9 4 4 3 0 2 7 7 1 6 6 7 2 0 0 4 0 4 7 6 6 4 3 3 8 7 9 9 2 9 2 4 3 8 9 4 0 6 3 4 2 1 1 6 1 2 0 3 8 0 1 4 4 4 8 4 4 9 3 8 0 7 2 3 5 1 9 8 9 2 2 4 5 3 2 7 7 5 2 5 5 4 2 1 0 2 8 6 1 1 5 1 1 9 6 8 3 6 6 2 0 8 8 6 2 1 5 1 6 9 7 1 3 9 4 6 1 2 4 4 6 9 7 7 1 5 5 4 1 4 8 4 2 9 0 6 0 7 8 6 6 5 9 2 6 3 0 9 8 4 5 4 6 4 1 7 9 8 3 1 2 3 7 7 2 7 3 4 6 3 0 4 0 1 6 8 7 8 7 5 3 4 9 9 8 2 8 8 2 3 1 7 6 8 6 1 7 1 5 3 5 8 7 5 1 6 6 8 4 3 5 7 0 6 8 8 0 6 6 5 9 7 2 8 5 8 9 2 1 6 7 6 4 5 4 8 3 0 6 7 5 4 7 5 0 5 4 1 4 2 6 3 2 0 3 7 0 4 2 1 1 9 0 7 6 6 5 9 8 4 9 3 8 6 1 8 3 7 1 7 9 9 3 1 1 6 1 1 1 5 5 4 4 5 1 3 1 7 4 9 3 5 4 1 3 5 1 7 4 3 6 4 4 1 7 6 8 0 9 1 5 4 7 2 1 8 5 4 7 1 5 2 7 0 3 0 7 5 9 2 0 8 8 6 9 7 2 9 8 2 2 3 8 9 5 0 0 2 4 9 4 0 2 3 2 7 5 9 4 5 3 6 3 3 3 4 1 7 4 9 1 6 4 0 8 2 0 8 4 4 9 8 6 1 3 8 1 9 0 5 4 3 2 9 7 5 3 0 4 9 1 6 6 5 6 4 7 8 4 2 4 3 2 1 7 6 9 8 5 9 3 1 5 7 2 4 2 5 4 7 5 5 5 3 2 1 9 2 9 3 6 3 8 0 6 5 8 6 5 3 7 1 6 4 8 8 8 3 6 4 2 3 1 7 6 6 0 5 8 9 0 6 4 8 6 1 6 5 9 1 0 8 4 7 3 3 7 3 8 3 0 0 6 3 9 2 9 9 9 9 0 9 5 4 0 2 5 6 9 6 9 9 5 4 6 0 9 4 5 7 9 7 9 6 1 8 0 2 9 0 2 9 1 7 3 1 1 1 7 0 7 9 0 4 3 8 6 4 4 4 1 4 1 2 2 2 2 2 5 1 4 9 0 6 6 3 7 0 6 7 2 6 6 4 0 1 3 9 7 9 3 0 5 6 2 7 9 4 2 6 5 6 5 5 4 3 0 4 5 7 1 8 5 9 2 7 2 7 6 9 7 1 9 4 8 1 4 7 7 8 5 2 4 2 9 1 7 9 5 3 8 8 3 3 7 5 1 9 3 9 0 2 1 9 8 9 2 2 8 9 0 5 3 7 7 4 0 4 5 5 9 4 3 2 9 2 8 2 3 
3 2 3 7 3 4 5 4 6 0 2 7 2 7 2 1 6 6 1 2 1 6 2 7 1 6 7 3 6 9 8 9 3 3 8 6 7 6 0 5 8 4 4 0 3 6 2 9 4 3 4 6 2 8 3 5 4 2 1 1 4 9 2 7 3 1 4 2 9 6 0 7 3 4 9 6 3 3 8 7 9 4 3 1 2 9 6 6 1 7 7 5 9 0 3 4 3 9 6 4 7 6 1 2 3 2 1 6 6 9 3 5 5 7 8 7 8 6 3 1 6 3 7 5 5 2 1 0 3 9 4 2 6 7 5 1 9 6 7 7 7 0 2 2 9 2 1 7 9 6 9 5 9 8 2 6 2 3 6 7 4 0 9 0 7 6 1 9 2 0 6 1 1 1 3 2 3 4 0 4 3 1 1 2 1 3 1 5 8 7 4 3 0 5 5 9 2 9 8 6 9 7 8 2 8 3 5 3 0 7 8 3 0 9 7 3 5 8 8 5 8 4 0 8 9 8 7 3 7 6 0 8 3 0 1 3 3 8 6 5 5 6 8 7 6 8 0 3 6 0 8 4 4 1 2 3 9 2 7 6 0 9 6 3 9 9 8 4 7 4 0 4 3 0 1 9 8 3 4 7 3 4 3 7 5 6 1 4 0 0 2 0 9 9 3 0 8 3 6 8 9 8 4 2 9 8 3 9 1 7 6 5 2 0 4 7 8 7 2 8 7 4 8 8 5 3 0 6 8 7 4 7 5 0 0 6 8 3 6 2 3 4 7 5 6 3 4 4 1 6 4 8 3 4 9 8 9 9 4 7 8 0 5 4 1 5 2 1 0 8 3 3 5 2 0 1 6 5 8 7 1 4 7 6 9 6 7 8 8 3 6 6 4 3 2 7 0 5 8 0 5 4 6 2 6 6 6 4 1 4 1 5 0 1 3 9 9 0 0 7 4 8 6 0 1 0 9 1 7 7 3 3 3 9 7 0 6 3 6 9 9 8 4 0 1 8 1 0 0 1 8 6 9 6 6 2 6 5 3 4 5 7 9 8 8 6 0 4 2 7 6 1 7 0 3 8 0 5 0 3 6 8 9 8 6 8 0 3 3 6 7 0 3 8 1 1 4 1 8 8 0 4 0 9 6 5 7 9 0 8 2 9 8 3 7 7 1 9 0 7 5 9 7 0 7 8 4 3 2 4 2 4 0 4 4 8 9 3 7 2 3 1 1 4 7 0 1 8 1 3 5 7 2 5 9 1 5 5 4 7 9 8 2 9 4 8 8 4 1 7 8 5 1 9 1 8 1 2 6 2 5 4 1 9 9 3 0 4 8 6 4 8 5 8 9 9 6 9 5 9 7 3 6 8 4 7 8 5 9 6 0 6 0 3 5 9 6 7 6 5 6 0 5 3 0 6 4 6 6 0 7 3 5 4 3 2 1 3 9 3 9 9 1 0 3 9 1 1 6 9 6 4 1 3 7 1 0 2 9 6 4 7 1 9 3 6 1 4 9 1 9 0 2 3 0 7 2 4 9 0 3 7 5 5 3 2 8 3 6 8 1 0 7 4 2 0 0 3 6 1 6 8 1 1 1 4 0 3 8 9 3 3 9 0 0 2 5 9 7 1 7 0 2 6 4 4 6 6 9 2 9 8 0 0 9 1 6 9 6 6 1 0 0 2 2 0 6 7 1 3 9 0 5 1 6 9 7 2 7 6 7 6 6 7 8 5 1 5 7 7 1 0 9 3 2 2 6 8 9 7 3 0 8 0 3 4 9 0 7 6 9 4 4 5 3 2 3 4 7 2 4 1 2 3 6 6 7 2 6 9 0 1 9 0 1 5 4 2 7 3 0 8 9 4 6 5 6 9 9 6 3 5 9 7 1 5 3 8 0 1 9 2 2 1 2 3 6 8 7 3 4 7 2 3 1 8 8 9 9 0 5 4 5 6 1 6 4 4 7 4 5 6 6 9 7 0 4 5 8 1 9 2 8 3 8 1 3 6 0 4 8 8 8 4 4 9 2 8 5 1 4 2 8 2 3 7 2 7 3 3 8 4 5 8 9 3 9 4 2 9 8 0 9 8 6 4 9 1 4 6 2 1 8 2 3 1 0 6 0 3 9 8 7 6 8 6 2 7 2 6 8 0 6 8 0 5 4 9 6 0 5 0 1 5 3 5 8 3 3 8 8 4 8 5 2 6 3 4 5 5 0 3 7 9 1 7 4 5 8 2 6 3 2 9 8 7 6 6 0 9 
6 8 5 4 5 8 2 0 2 7 7 5 0 6 4 4 5 0 9 3 4 7 6 8 9 6 6 5 2 8 7 0 7 2 4 4 0 8 7 5 5 6 2 6 3 8 0 8 0 1 2 4 1 0 2 0 7 0 5 1 9 2 2 8 7 8 4 7 7 1 4 2 8 6 0 3 4 0 1 6 4 5 0 5 6 5 7 3 5 2 4 6 7 8 6 4 7 1 3 6 4 8 8 2 6 9 7 3 1 1 9 5 6 2 2 4 7 9 9 4 4 6 3 1 4 9 7 3 0 2 9 5 2 8 9 9 9 7 4 0 0 3 8 8 7 0 3 6 2 2 3 6 8 6 9 3 5 8 8 8 0 8 3 3 6 4 4 7 3 8 9 3 3 7 2 1 0 7 9 2 9 2 0 8 8 1 3 6 9 1 4 1 1 9 4 9 3 8 6 9 8 6 2 2 5 6 5 7 3 4 1 5 7 1 5 7 4 0 3 3 3 7 7 5 8 1 4 2 2 1 3 2 9 5 4 6 4 1 4 9 6 5 4 5 9 1 2 3 1 8 9 5 5 6 0 4 9 6 8 3 7 1 6 8 8 2 5 4 4 1 6 2 6 0 9 7 2 1 3 5 1 2 0 7 0 2 3 1 9 3 7 8 6 3 7 6 5 4 3 1 7 9 5 5 9 4 3 3 6 6 1 7 0 1 6 2 6 1 5 5 6 2 5 4 5 4 1 3 8 4 6 7 3 2 3 4 6 6 0 4 4 1 4 6 4 2 8 2 6 3 7 2 6 3 7 3 7 0 8 8 6 5 5 9 7 8 5 5 6 7 0 2 0 4 8 5 8 6 7 4 2 7 7 0 2 6 3 1 6 4 1 4 9 7 5 8 7 0 3 6 0 5 8 0 1 7 5 0 5 5 4 9 4 3 9 6 9 5 7 7 9 9 1 8 8 6 8 7 9 3 5 9 9 4 9 0 3 7 2 0 2 7 0 6 0 1 4 0 6 3 9 5 2 3 5 2 9 3 2 0 7 7 1 8 3 1 8 8 0 1 9 4 0 1 2 0 2 6 2 9 9 4 4 4 7 0 8 8 5 0 9 4 8 0 2 1 3 3 2 3 4 1 7 6 4 9 6 6 7 1 7 7 5 2 3 2 4 1 2 1 2 1 6 2 4 8 5 7 1 7 1 7 0 0 3 4 2 2 1 9 3 8 6 0 2 9 4 8 3 6 0 5 0 8 7 4 6 4 1 0 2 4 9 2 7 3 7 9 7 0 8 0 0 7 2 5 8 8 3 1 4 5 8 4 5 7 0 4 2 4 4 6 0 3 8 7 8 7 8 5 9 7 7 0 6 1 7 6 9 2 8 4 8 8 0 3 6 3 7 0 7 3 6 7 9 6 5 7 6 5 5 5 2 2 7 0 4 6 7 3 9 7 9 7 5 2 2 3 5 2 5 4 7 1 1 6 0 8 4 8 4 9 3 8 3 3 1 9 9 8 3 0 7 4 7 2 8 2 8 3 6 3 9 3 7 1 0 9 1 6 7 7 7 2 6 0 5 7 0 7 7 5 7 4 1 7 8 0 1 6 5 7 2 5 0 9 8 2 8 9 8 7 7 7 9 5 0 5 4 2 4 1 9 3 5 0 2 5 0 3 2 8 2 4 5 5 5 3 7 5 4 8 2 3 5 1 8 5 8 4 9 4 5 8 8 2 9 0 8 1 6 2 1 8 6 6 3 3 9 3 8 6 1 2 9 8 3 0 4 4 4 5 8 2 4 6 6 5 9 4 6 7 6 8 5 4 6 1 9 8 4 7 4 5 1 5 3 5 7 9 9 2 5 7 6 1 6 2 6 7 9 4 4 7 2 1 4 1 2 3 9 8 3 3 3 4 8 9 1 6 0 2 0 7 2 8 8 8 2 6 7 1 1 1 1 5 4 5 6 7 0 5 7 3 0 3 0 9 2 3 7 4 6 9 2 8 7 2 8 1 9 5 3 2 8 6 7 2 1 4 1 1 1 1 7 2 4 9 3 8 2 2 2 8 1 6 6 0 1 6 1 0 1 6 2 1 2 1 6 5 7 9 7 9 0 6 3 4 5 6 2 9 8 7 8 1 3 6 1 4 3 4 6 6 1 0 0 5 2 6 1 1 7 0 0 8 8 3 4 3 9 7 2 9 4 2 0 9 1 3 4 4 8 2 2 1 3 4 6 7 2 9 8 0 9 9 0 7 4 4 
2 6 3 7 5 7 1 8 9 2 1 3 8 1 7 3 4 0 7 3 7 0 2 6 2 4 7 2 3 3 6 8 9 0 5 7 9 8 7 8 1 0 3 1 2 1 4 6 3 2 1 1 4 4 9 6 8 8 0 3 1 6 1 3 8 8 2 0 7 9 0 8 9 6 9 3 7 6 2 2 0 3 3 4 9 4 2 9 4 4 3 6 2 4 1 1 3 3 3 0 4 3 0 5 9 1 9 8 7 3 1 9 6 6 5 6 3 7 7 7 3 0 5 6 5 6 9 0 1 2 2 7 7 2 3 9 5 4 7 5 9 0 4 7 7 0 5 2 9 3 9 3 3 5 1 0 3 0 2 7 2 4 6 9 8 1 8 6 7 8 1 6 8 7 4 7 9 1 1 9 4 1 4 0 8 5 0 3 7 3 0 9 9 9 0 8 0 1 4 8 1 7 6 1 4 0 1 4 4 2 5 8 3 9 8 3 6 9 7 3 4 9 4 3 8 6 3 9 9 9 9 0 6 5 4 1 8 5 7 2 7 2 0 3 3 1 6 9 2 5 4 6 5 0 1 5 6 7 6 8 6 5 8 3 3 2 6 1 9 3 5 7 5 5 2 8 8 8 9 0 6 5 8 1 5 2 6 3 9 3 1 7 0 2 0 3 6 8 6 6 1 1 5 8 9 7 8 7 5 7 8 1 2 8 4 9 0 3 5 9 8 8 9 8 0 9 4 7 8 0 5 1 2 0 0 1 7 8 0 4 8 8 8 2 7 2 4 9 7 9 1 5 7 0 6 8 1 0 7 1 2 4 3 6 4 5 9 3 5 0 7 3 0 5 8 9 0 2 9 7 1 0 3 8 2 1 8 3 3 7 5 5 1 8 4 7 5 3 0 0 3 8 6 4 5 4 3 5 6 4 3 7 4 8 7 8 9 8 2 2 7 7 7 1 7 3 8 2 7 1 2 2 9 0 8 6 4 2 2 2 8 5 9 5 3 9 3 4 9 5 6 6 2 5 7 9 9 6 3 6 7 8 0 8 8 9 4 5 3 8 7 1 3 9 6 8 8 0 4 7 7 0 5 2 6 3 1 7 1 7 5 8 5 5 8 5 4 4 0 7 3 0 9 8 9 5 7 9 7 3 8 5 4 3 7 2 6 0 9 7 9 4 7 6 9 5 2 4 0 4 3 5 4 2 3 5 0 2 4 9 6 2 4 0 6 3 4 4 6 3 4 7 9 1 4 0 9 8 6 1 2 0 6 9 2 9 4 4 2 9 4 8 3 0 0 9 6 4 6 2 9 0 9 0 1 5 0 2 3 7 3 6 7 9 7 1 9 1 6 3 0 0 3 6 0 5 7 8 1 3 0 0 3 2 0 7 9 0 9 3 9 3 1 6 4 8 0 5 9 6 8 2 8 3 8 0 8 5 9 9 1 1 1 4 5 1 3 5 4 3 8 5 8 1 2 2 9 2 8 0 0 8 2 8 2 2 8 2 8 7 2 1 1 3 5 6 7 1 1 3 6 1 8 4 2 2 8 1 6 8 2 6 9 6 6 1 9 7 5 9 6 7 0 7 3 7 4 2 8 5 7 4 9 5 0 1 0 9 5 6 9 9 5 8 5 3 1 6 0 7 5 7 6 7 6 1 5 0 5 5 8 2 0 7 0 2 0 0 3 5 8 3 4 3 3 2 7 5 8 9 4 6 8 0 3 5 4 0 7 9 6 5 2 8 4 2 0 7 4 6 4 2 9 9 8 4 3 7 9 3 6 3 9 7 6 3 2 0 3 1 9 1 7 3 9 3 7 2 0 1 8 5 6 9 6 4 3 1 1 5 4 9 0 4 6 6 9 0 8 4 2 0 6 1 3 7 6 3 9 7 6 9 4 2 0 2 8 4 3 1 1 7 3 1 3 1 0 2 2 8 7 6 8 5 9 4 2 5 7 4 4 5 5 8 0 6 2 8 2 5 2 3 5 5 6 8 6 6 1 8 5 0 6 3 5 5 9 7 3 8 3 7 4 9 8 4 5 0 4 9 8 6 2 3 1 0 3 8 7 4 8 2 4 5 7 1 2 9 9 5 7 2 5 1 3 3 7 8 5 2 7 3 8 1 8 0 4 2 0 1 8 8 5 3 5 4 4 0 3 5 7 1 0 2 4 3 5 2 4 3 6 3 6 4 7 5 6 1 7 6 2 5 5 9 0 2 3 7 2 9 4 0 0 4 2 6 0 0 0 4 
3 6 9 1 1 6 8 7 7 7 4 9 5 1 0 5 3 4 4 6 3 1 8 5 7 2 3 7 4 4 3 9 0 3 1 3 9 9 3 7 7 9 8 2 0 1 9 5 5 6 1 0 7 1 5 4 4 8 4 8 4 7 8 7 2 1 0 4 0 3 3 9 4 3 3 4 4 5 0 9 1 3 9 0 7 6 4 1 7 0 1 1 0 9 0 2 2 1 6 5 6 9 4 1 5 0 7 9 5 9 9 8 3 0 8 0 9 4 3 6 5 4 9 7 6 0 9 0 3 8 5 1 9 0 2 4 2 2 4 7 1 5 5 6 7 5 8 6 9 1 4 6 8 6 3 6 8 5 6 3 5 2 4 6 4 9 1 6 1 7 5 4 4 2 1 1 7 9 0 8 3 6 7 3 2 0 9 2 7 5 5 2 9 2 9 3 1 2 1 4 9 6 0 5 8 1 6 5 3 6 6 6 3 3 9 7 5 0 2 3 7 7 7 7 1 8 2 4 0 4 8 1 2 9 6 1 2 5 8 7 3 6 5 8 9 6 6 5 6 0 0 4 7 7 3 9 8 7 3 8 3 4 2 6 5 0 9 9 7 9 7 1 6 2 9 7 1 7 2 7 7 2 3 7 2 8 8 0 6 3 0 1 9 4 7 6 7 8 6 4 0 5 7 6 9 7 3 0 6 8 8 6 2 3 5 4 2 3 6 0 8 7 1 8 3 1 6 0 9 2 5 9 9 2 7 9 1 3 1 0 3 1 8 5 5 3 2 7 8 8 7 6 7 0 6 1 1 3 3 1 7 0 2 7 3 2 8 6 5 9 6 0 1 4 5 8 9 7 7 7 8 6 4 7 6 2 0 8 5 4 1 5 4 3 2 9 7 2 6 2 1 4 4 4 1 0 2 0 9 9 0 9 5 6 7 4 8 7 2 6 3 3 1 8 8 5 9 6 7 5 0 0 2 5 5 5 7 9 7 6 9 7 8 6 5 7 0 4 4 4 2 0 7 5 0 6 0 9 4 9 7 4 9 1 9 4 6 6 6 5 5 7 5 3 3 0 0 6 6 6 0 8 8 0 3 8 8 3 8 2 2 7 6 4 8 8 0 6 4 6 1 1 3 6 4 9 9 6 5 5 5 7 4 3 9 7 2 7 3 2 1 7 1 0 1 9 8 2 7 4 0 0 6 4 9 2 3 8 1 0 3 6 9 9 9 9 9 3 8 4 5 2 1 6 2 5 7 2 9 6 6 9 7 4 5 6 9 8 6 0 8 1 8 8 1 7 9 0 1 7 4 8 9 7 7 3 4 6 5 3 3 4 5 0 8 0 8 9 1 4 1 9 5 9 9 8 9 8 8 2 8 4 2 9 4 9 3 0 6 8 6 9 2 1 1 3 3 9 4 4 5 6 6 0 7 5 9 6 6 9 0 6 6 3 5 2 2 8 2 8 9 8 9 3 1 0 6 5 1 1 9 6 9 5 9 6 3 0 5 1 1 5 7 7 8 4 1 1 5 4 1 4 2 3 7 4 5 6 1 7 9 0 5 8 8 4 6 3 6 1 6 8 7 5 7 7 9 9 8 6 5 2 0 9 7 0 5 2 8 6 1 7 9 7 7 7 3 3 2 2 5 8 0 2 5 9 9 4 0 0 1 5 4 3 5 3 5 0 5 3 7 9 0 6 6 7 5 1 1 9 3 8 9 5 2 4 5 3 0 7 3 1 3 9 7 8 2 2 0 0 8 9 9 8 7 7 8 4 0 1 3 6 9 2 1 3 8 8 6 9 6 2 2 1 3 9 1 6 4 1 8 2 1 9 2 8 8 2 3 8 3 8 4 4 3 8 9 1 8 6 0 6 8 3 7 1 4 8 9 8 0 9 2 3 8 5 3 6 7 6 7 3 7 3 9 0 1 9 1 2 5 4 8 5 9 6 6 5 4 8 4 6 7 6 1 8 3 5 4 3 3 1 6 0 5 5 0 8 6 4 0 1 0 9 8 1 7 7 6 3 5 0 2 4 9 3 2 4 8 7 7 2 0 5 4 7 1 7 8 9 3 8 1 3 9 1 4 6 8 0 2 3 3 4 8 4 7 2 0 8 9 8 2 2 3 6 1 6 5 9 6 8 8 9 1 9 0 7 8 9 0 0 4 5 6 4 9 5 7 9 3 8 9 7 2 5 6 4 1 1 3 9 0 3 0 3 3 1 3 1 2 3 3 8 8 9 5 9 4 2 
0 0 2 0 7 5 5 3 9 8 5 4 0 7 8 0 2 3 3 5 4 7 0 9 6 8 8 1 9 4 5 0 4 7 2 2 4 9 7 3 9 4 0 9 1 8 0 4 3 5 1 9 3 2 8 1 2 8 4 2 2 9 4 9 8 6 1 3 5 0 8 6 5 8 6 6 8 6 2 1 1 4 0 6 8 0 7 0 8 1 2 3 2 6 2 1 4 3 4 1 5 2 8 0 1 4 9 1 2 1 3 5 7 5 2 5 6 1 6 4 3 0 9 5 9 1 6 3 6 2 5 2 5 3 2 8 7 1 9 9 5 4 6 2 0 8 0 8 2 8 4 5 8 4 2 7 5 1 1 2 3 6 4 0 1 8 0 8 2 2 9 7 6 7 1 8 8 1 8 0 9 3 7 0 7 9 7 4 2 0 8 8 8 2 8 9 3 1 9 5 3 0 2 1 8 3 0 6 7 8 6 8 3 5 8 2 4 6 7 9 8 5 7 7 0 7 6 3 8 8 0 1 8 2 5 6 7 7 4 4 7 2 3 1 7 3 3 4 9 2 3 0 8 0 7 0 7 5 5 8 3 5 1 2 7 6 0 6 3 7 3 1 9 8 4 9 1 7 3 3 2 8 3 0 8 0 2 7 5 7 5 9 2 7 3 1 3 5 7 9 2 2 0 4 0 4 3 2 3 8 5 5 6 0 7 6 0 9 3 7 8 1 6 2 8 1 3 3 7 3 2 1 5 4 5 8 0 0 2 4 0 9 1 8 9 9 4 9 0 0 6 9 3 5 1 3 8 7 6 7 2 1 9 7 5 4 7 6 7 9 2 7 8 3 6 7 4 2 8 5 4 7 6 7 4 9 0 2 6 9 0 8 0 9 8 7 5 7 5 2 7 7 2 7 3 8 5 7 2 5 4 7 2 0 6 8 0 9 3 8 0 3 9 0 4 9 9 1 6 5 6 5 4 8 3 9 8 0 7 0 5 1 9 0 4 8 8 6 9 1 4 9 6 5 1 2 6 0 4 5 7 2 0 4 0 3 3 8 5 0 0 1 4 2 3 8 2 3 4 1 5 0 0 3 8 1 6 4 3 2 1 3 4 2 7 6 7 2 6 3 5 6 6 9 0 9 9 2 2 5 3 9 7 5 5 5 6 3 2 2 7 3 5 3 7 4 9 5 6 5 0 3 3 6 4 4 7 3 8 1 0 2 3 8 7 8 5 6 1 7 0 0 3 7 3 2 1 2 7 9 9 9 3 2 7 9 8 4 3 7 8 3 1 1 3 0 1 9 8 4 8 8 4 3 5 7 6 8 1 5 0 0 5 5 4 2 4 3 7 9 2 7 5 3 8 8 3 9 7 2 3 6 2 7 1 0 6 7 0 7 3 0 9 8 5 3 0 2 8 9 1 0 6 8 3 6 7 9 5 6 3 0 4 5 9 6 5 5 3 6 2 6 8 1 6 6 7 9 8 5 8 1 6 7 0 1 5 9 0 1 5 3 3 0 9 3 6 6 8 1 4 3 0 3 6 6 9 3 5 9 1 6 2 7 3 2 8 8 1 1 1 9 4 7 1 5 0 9 2 0 0 8 5 0 1 4 7 2 9 4 3 0 0 6 9 5 0 0 6 4 1 7 3 5 6 4 3 8 3 5 1 5 5 6 6 7 2 5 1 2 9 5 2 0 3 4 5 3 4 1 7 5 1 0 2 9 6 5 8 9 2 9 7 8 7 3 7 0 0 0 2 1 5 6 1 8 0 9 4 6 2 1 3 5 4 8 7 0 3 5 2 8 4 9 6 3 4 5 3 4 5 5 5 3 4 9 3 6 0 7 5 4 9 8 2 3 6 9 5 2 6 7 0 2 8 8 5 2 3 9 8 0 6 6 3 0 5 7 9 7 4 4 3 5 2 7 0 1 6 6 3 2 3 3 4 2 3 0 6 8 1 5 8 7 1 2 0 8 9 9 7 5 5 0 1 9 8 1 0 6 9 3 1 3 8 5 7 3 7 3 1 8 0 0 8 3 2 8 1 3 9 8 0 6 1 3 5 1 7 8 7 6 1 0 1 2 6 8 5 5 4 9 6 6 9 4 0 3 4 1 8 5 2 8 1 5 2 8 6 9 6 5 7 0 6 9 4 4 9 1 9 3 0 7 2 9 1 2 2 7 5 2 2 9 1 5 4 5 6 2 6 2 0 3 2 6 2 8 2 4 0 3 7 0 1 1 2 4 3 6 
2 1 9 6 0 2 4 5 7 0 9 3 4 9 8 9 7 3 7 9 7 7 5 6 0 6 8 2 2 3 0 4 4 9 3 5 1 9 2 0 9 1 3 5 1 4 4 8 7 4 0 4 1 5 2 3 3 0 7 5 4 8 2 0 9 7 5 1 6 7 3 7 9 9 2 2 3 9 2 2 3 2 6 4 9 0 0 2 1 7 8 7 7 2 7 7 9 5 0 5 2 3 2 3 2 6 7 7 5 0 9 8 2 7 5 2 8 5 6 1 4 4 8 2 6 7 1 5 2 1 2 7 6 4 2 1 3 0 8 8 2 8 7 4 5 2 8 3 9 5 4 3 1 4 7 0 4 8 7 8 1 0 5 8 6 0 9 9 0 9 8 2 7 7 8 3 9 9 8 8 4 5 3 7 1 1 7 5 1 5 4 3 5 1 1 3 1 2 3 3 1 3 7 1 0 6 6 9 7 4 9 3 1 4 0 3 5 8 0 9 5 6 2 2 8 5 5 1 9 8 5 0 1 2 1 1 0 7 2 7 4 3 0 7 8 3 2 5 1 3 4 8 1 8 0 9 3 5 3 2 6 8 5 7 2 8 1 5 8 5 4 2 9 5 9 9 8 4 6 1 7 1 1 8 1 1 0 5 8 3 9 4 3 4 2 5 3 5 2 1 0 7 5 9 4 6 0 4 0 7 5 7 0 6 8 1 9 0 6 7 5 8 2 8 2 6 5 5 3 8 8 3 5 3 5 1 0 5 5 2 2 0 2 2 8 0 6 9 2 4 6 7 2 0 5 5 8 2 2 1 2 3 5 9 6 2 0 8 7 5 1 2 7 5 6 5 5 2 6 9 7 3 6 9 5 3 6 4 7 9 5 0 2 2 9 0 4 0 1 4 5 4 6 3 9 2 0 6 7 7 5 4 2 3 5 9 6 2 3 3 3 1 3 7 5 5 9 0 5 0 4 2 4 2 5 5 6 8 1 3 7 8 7 9 1 5 8 7 7 4 3 2 7 8 9 2 3 8 4 0 9 0 3 5 2 0 1 9 8 4 2 5 3 2 6 4 7 7 4 6 3 9 8 0 9 7 2 3 7 9 5 8 9 8 4 2 1 7 3 9 3 7 7 6 9 3 3 8 2 9 4 5 8 4 5 7 3 0 2 1 9 0 1 8 8 7 2 1 4 7 1 0 5 0 8 6 5 1 5 8 0 1 3 0 8 9 0 1 1 4 4 0 4 6 0 5 3 5 6 0 2 9 0 9 9 8 6 5 2 3 3 4 6 8 7 4 7 7 8 8 1 2 0 8 8 3 3 4 8 1 4 2 1 6 2 2 4 0 9 8 5 2 3 1 3 0 8 2 9 6 3 2 8 3 0 9 6 5 3 6 7 7 1 8 3 5 2 9 5 2 0 0 6 3 3 9 5 1 2 4 7 5 8 8 0 9 7 9 6 0 5 3 9 8 3 4 3 6 5 8 8 5 0 6 0 4 6 7 5 0 3 5 5 2 3 5 3 2 4 9 4 2 3 3 0 8 9 4 6 6 4 6 4 5 3 4 1 9 4 8 9 7 3 6 9 8 3 4 0 8 4 4 2 9 9 4 9 0 0 6 7 5 2 1 2 5 7 3 6 3 3 7 1 7 5 2 7 9 7 8 9 3 4 1 4 4 5 3 4 8 9 3 3 4 4 7 1 4 2 8 7 5 7 0 4 3 3 2 2 2 2 1 7 6 4 1 0 1 6 5 9 6 8 4 2 5 1 3 1 3 3 0 1 1 1 5 6 6 7 0 0 9 3 7 6 7 8 8 0 4 5 2 2 6 6 6 3 0 0 4 5 3 6 6 6 9 4 4 7 3 4 7 3 9 4 1 8 4 1 9 1 7 1 3 3 9 0 8 1 2 4 9 7 0 7 6 2 1 0 9 5 7 9 0 6 3 3 5 0 4 6 1 3 9 6 6 8 6 4 2 0 8 1 8 1 8 4 3 2 6 4 7 3 3 7 2 9 2 7 9 6 3 0 0 2 6 8 2 5 5 6 5 5 9 5 6 8 1 1 2 8 6 9 3 1 8 5 0 0 4 9 8 7 1 8 1 0 9 6 5 4 2 2 1 2 0 8 2 1 1 4 1 9 5 5 1 5 2 3 5 7 3 5 6 6 6 0 6 5 6 3 1 0 8 2 4 8 2 6 1 4 2 3 5 9 0 8 4 2 2 1 1 5 7 8 3 3 0 0 0 
6 3 1 8 1 5 3 1 8 9 3 4 4 6 1 3 6 0 8 0 2 1 2 9 8 0 2 3 0 2 5 8 8 6 6 1 4 9 3 2 1 6 8 7 2 9 0 0 9 0 0 3 2 2 2 2 4 7 6 6 1 1 4 9 0 3 1 4 4 6 8 7 2 8 4 6 7 7 6 9 7 8 4 1 1 7 4 7 6 2 4 7 3 0 9 5 5 2 1 0 8 9 9 2 7 4 8 7 1 6 6 0 4 0 2 7 9 6 5 7 8 1 5 3 1 4 9 7 6 0 9 6 2 8 8 9 4 6 8 7 4 4 8 8 7 0 8 8 8 5 6 8 6 3 1 9 7 2 8 5 5 9 1 7 8 9 8 2 7 7 0 1 3 0 1 2 2 1 1 0 6 9 0 4 2 1 6 9 6 6 6 1 6 9 0 4 0 0 8 7 7 0 0 3 0 3 5 4 5 6 4 3 7 4 0 9 8 8 0 6 4 6 9 0 5 9 6 5 9 5 4 9 7 4 2 0 0 9 4 7 8 1 2 5 7 2 5 7 2 5 3 7 4 2 9 9 3 6 5 5 3 1 6 0 6 0 0 8 9 7 5 7 8 7 5 5 2 0 3 4 7 8 3 1 1 3 1 6 9 8 1 2 1 7 4 7 9 5 5 9 2 2 8 2 0 3 7 2 5 2 8 3 1 2 6 4 7 9 0 6 9 4 0 1 1 4 0 3 1 8 2 5 0 0 7 0 6 7 4 1 9 5 6 2 7 5 6 4 4 7 2 4 3 2 5 6 8 7 9 0 5 1 5 6 4 3 8 2 2 3 5 3 8 4 6 7 9 4 3 3 1 7 9 6 1 6 3 9 4 2 9 9 4 5 5 0 0 4 2 4 9 7 7 9 1 3 6 2 8 1 6 1 8 5 8 9 4 1 8 8 3 0 7 9 7 5 1 9 1 3 3 0 3 0 1 6 6 7 9 6 0 7 9 8 4 7 9 8 0 9 6 6 9 6 7 6 3 9 5 4 4 0 6 9 3 7 6 9 6 7 5 6 4 6 6 8 4 5 9 6 4 5 4 6 3 4 4 6 3 2 2 9 2 0 9 5 9 7 6 5 4 3 3 0 0 1 0 6 8 9 2 5 7 9 1 0 3 5 9 8 7 1 7 2 4 8 7 3 5 6 1 1 9 6 1 9 8 4 5 6 3 0 1 2 9 2 3 4 0 2 2 9 5 9 1 1 8 1 5 5 7 8 7 6 4 0 8 2 6 3 1 0 5 2 4 4 7 7 0 9 1 2 8 9 4 0 0 4 1 7 9 8 5 8 6 0 1 4 4 7 0 5 9 5 0 4 2 9 1 2 8 5 5 6 4 1 8 6 5 9 4 4 9 9 5 8 1 6 2 6 3 2 3 3 0 3 7 2 2 0 4 0 7 1 9 1 2 7 0 7 9 4 4 0 3 9 8 7 5 3 3 0 7 6 3 7 2 2 9 4 5 6 7 2 7 8 6 2 7 6 1 6 0 5 9 5 6 7 2 3 2 7 4 0 6 9 7 8 4 9 4 9 7 3 1 6 1 7 8 9 3 0 7 5 7 6 3 6 6 5 1 8 5 5 0 1 7 8 9 1 9 3 0 6 7 3 2 0 1 3 1 6 5 9 4 4 7 7 0 5 4 2 6 9 9 6 0 6 6 1 7 5 7 9 3 6 3 8 6 6 1 8 4 6 9 8 0 8 7 3 6 2 5 2 3 6 8 6 3 7 7 2 4 6 2 8 2 7 6 1 5 9 1 9 5 0 0 7 0 7 0 6 1 5 8 5 2 9 3 7 8 2 9 2 9 3 2 3 2 8 4 7 9 5 9 4 7 9 2 8 8 2 6 0 0 7 7 4 8 0 1 6 4 2 8 3 8 1 9 0 1 3 0 1 9 9 7 8 8 1 8 6 4 5 8 6 4 7 0 2 9 3 8 4 7 8 9 5 1 8 8 5 2 8 8 3 7 7 3 5 9 2 3 5 9 4 1 3 1 3 5 1 8 5 5 5 5 4 1 7 3 9 4 7 7 2 0 6 9 3 3 0 7 6 5 6 0 8 9 2 1 6 3 9 1 0 7 7 4 8 6 9 9 0 6 8 4 8 4 5 4 7 6 3 5 1 0 8 0 1 2 3 8 5 5 1 7 2 0 1 2 8 3 1 0 1 1 4 2 7 2 8 6 8 1 1 1 1 1 3 
5 3 7 3 0 4 6 7 6 7 1 8 5 4 1 6 7 4 2 9 1 4 7 9 4 9 2 6 2 4 9 7 7 8 2 8 2 9 7 0 8 8 0 5 2 3 3 0 7 8 1 0 4 9 1 9 0 4 5 4 8 6 4 7 7 6 5 1 7 3 2 7 3 4 5 8 0 8 8 9 6 1 0 1 0 3 2 2 7 9 7 5 5 1 5 4 7 2 6 7 7 0 6 1 6 1 9 6 0 9 6 8 0 8 1 1 1 3 3 9 2 2 6 0 3 1 4 3 4 2 0 3 4 6 4 1 0 3 7 0 2 5 0 5 3 4 6 7 9 1 6 4 4 4 4 9 8 0 2 4 5 4 7 9 3 2 0 3 7 0 5 2 5 7 7 1 1 5 8 1 6 6 7 2 2 1 4 0 3 6 4 0 1 4 0 6 8 2 9 5 2 4 7 0 3 4 1 5 9 1 8 8 7 5 2 9 8 6 2 3 5 8 4 6 2 6 2 0 8 3 8 3 9 5 5 2 2 6 9 3 9 7 1 6 4 6 7 4 2 9 8 7 8 4 5 2 0 9 3 0 4 1 5 3 8 0 8 0 8 7 4 7 7 7 3 1 3 3 6 8 2 6 7 0 0 5 3 2 4 8 4 9 1 0 4 9 0 2 2 1 0 8 8 7 7 4 0 1 7 8 1 1 6 0 4 8 5 9 0 0 7 7 1 0 7 7 1 9 0 5 0 2 3 1 9 1 5 1 4 4 2 7 5 8 7 1 7 3 0 9 5 7 6 8 9 5 5 1 5 5 6 5 7 2 6 8 5 3 2 9 9 4 8 7 4 5 8 3 0 9 3 7 8 1 5 8 7 1 9 2 8 7 9 8 9 8 8 4 3 2 5 3 6 3 2 3 1 0 6 1 1 9 9 0 3 6 0 0 9 1 4 0 8 5 0 8 3 8 4 9 1 0 2 9 5 4 2 6 6 1 0 8 2 1 8 5 9 0 7 9 1 3 9 9 9 1 9 4 9 4 3 2 6 7 4 1 3 8 0 0 9 2 8 2 5 8 9 4 8 7 5 9 0 6 0 1 7 0 6 9 6 9 3 4 7 7 7 2 8 9 2 7 1 2 1 8 2 1 5 2 0 2 3 2 9 4 4 8 6 2 7 4 1 1 8 0 0 5 5 8 5 7 8 8 2 1 9 4 4 6 7 4 8 0 9 9 6 5 8 2 7 7 8 0 8 6 3 1 4 8 1 1 7 9 9 9 1 0 4 5 6 3 2 5 5 3 4 4 8 4 8 5 2 7 7 2 3 0 3 7 8 5 8 6 6 0 7 7 2 3 5 9 6 9 6 4 2 0 8 0 5 6 7 7 5 4 9 9 7 5 8 5 0 9 3 6 1 1 6 3 4 3 2 3 2 8 9 6 1 9 8 8 5 5 5 1 1 6 2 8 1 2 6 3 1 1 2 2 2 0 8 9 3 0 4 7 1 3 3 4 4 1 2 1 8 7 2 9 5 6 0 9 9 6 4 2 7 8 7 2 8 5 3 3 7 9 2 0 4 5 4 8 8 6 9 8 5 4 8 1 0 0 2 1 6 6 6 5 5 3 7 5 0 2 9 7 1 3 0 5 1 4 3 9 1 3 0 6 7 0 9 9 0 1 3 8 0 9 3 5 4 3 2 4 5 3 3 7 7 3 4 8 8 8 9 1 3 9 9 0 9 9 1 9 2 4 7 2 3 3 7 7 6 2 3 3 5 7 0 2 2 7 0 2 5 2 5 8 1 5 0 3 4 1 4 6 8 4 1 3 7 0 1 3 2 6 8 8 5 9 0 8 6 3 2 3 5 8 3 8 3 5 1 9 8 6 7 6 0 8 0 9 9 3 4 1 9 2 9 5 3 2 5 1 7 7 4 2 5 7 0 8 4 4 7 3 0 7 9 2 5 9 1 6 4 7 8 4 9 9 1 3 3 6 4 0 3 1 2 9 0 5 9 5 9 9 8 1 6 7 5 3 9 8 0 5 5 0 9 4 9 0 9 5 8 4 5 2 5 0 3 5 7 2 0 6 3 0 9 9 0 4 5 1 2 5 6 7 5 6 3 6 8 3 1 7 9 9 1 4 9 4 1 6 8 4 4 4 4 5 3 4 1 8 5 3 5 4 2 0 0 7 9 0 0 0 9 9 1 2 5 2 8 9 0 9 3 4 3 9 1 8 4 2 9 1 7 4 5 9 
7 7 7 6 0 9 8 9 1 0 4 6 2 2 5 3 1 0 9 4 0 1 3 6 5 2 7 3 6 5 4 5 4 1 1 4 3 2 6 4 2 0 2 6 2 0 1 4 0 3 0 2 6 3 8 1 7 6 4 4 3 9 9 7 2 3 4 7 5 0 3 9 2 6 5 4 8 9 0 0 2 1 3 8 6 1 1 4 9 8 0 4 9 1 2 3 4 8 1 1 8 6 0 0 4 8 6 2 9 9 3 1 2 8 1 8 9 4 4 1 2 6 5 3 8 7 7 4 7 0 6 5 6 8 7 1 6 6 3 5 5 8 8 9 6 1 9 8 6 4 9 8 0 4 2 0 4 1 5 1 1 1 9 7 1 6 8 8 4 4 5 1 2 4 0 1 5 0 9 3 4 8 2 6 4 6 7 8 9 4 0 0 7 9 9 8 7 8 6 4 4 4 5 6 8 6 9 5 6 8 9 2 8 3 0 3 1 9 1 0 3 3 2 0 4 1 9 2 1 7 6 5 1 3 4 1 9 3 9 7 4 8 1 4 3 4 7 4 3 1 6 7 6 8 9 1 9 0 5 3 8 1 8 1 6 2 5 6 8 4 5 4 4 9 8 7 3 8 1 6 9 7 5 5 7 5 8 6 5 3 1 5 6 0 9 3 4 6 1 4 0 6 8 6 7 9 3 0 7 6 7 8 5 4 5 2 9 4 0 7 7 2 4 4 4 3 9 8 1 0 5 1 8 3 9 6 2 2 6 1 0 5 9 5 2 5 9 1 1 0 0 8 4 5 4 8 0 3 8 2 5 3 5 4 9 5 2 3 9 0 5 0 8 4 5 0 1 5 1 2 7 4 3 1 9 7 1 1 3 9 3 8 5 1 4 4 8 6 7 7 7 2 7 5 9 5 5 2 2 8 7 9 2 0 2 3 9 5 5 4 4 0 3 1 3 9 5 1 6 5 9 3 7 8 0 8 3 5 1 5 5 0 6 8 0 0 3 1 5 8 6 2 1 1 3 6 0 1 8 8 6 9 3 5 7 3 4 3 0 7 0 6 9 7 4 1 9 9 2 7 0 0 9 1 3 4 7 4 7 7 4 3 6 8 9 6 3 5 9 4 4 9 0 3 8 6 4 0 5 8 7 5 9 8 8 2 2 8 8 2 7 5 5 4 3 6 2 6 3 1 2 9 2 2 4 1 0 0 3 8 9 0 3 0 8 4 4 2 4 5 4 1 2 2 7 5 0 9 3 4 0 8 5 5 2 0 6 3 2 1 3 3 1 6 5 1 2 2 3 6 7 0 8 9 4 7 6 4 7 1 0 7 1 6 4 4 8 2 9 0 3 2 6 4 0 1 5 3 3 1 1 2 3 1 3 7 9 1 3 6 3 4 5 4 2 0 0 2 2 9 4 6 1 0 2 2 2 0 5 7 1 8 0 6 0 5 5 9 7 8 5 0 4 2 6 6 2 7 8 7 6 5 3 0 5 7 2 9 7 9 9 0 7 9 6 7 4 1 8 3 2 5 3 8 8 2 5 2 1 5 9 9 0 4 9 8 2 1 9 9 0 8 0 8 7 8 7 4 2 8 7 6 3 3 4 1 7 9 6 8 7 7 7 9 2 7 9 6 0 9 7 1 7 9 1 7 8 0 3 2 8 2 8 2 7 2 5 4 4 3 4 3 1 2 2 5 1 4 1 1 3 0 4 0 0 7 9 0 8 2 2 6 7 0 0 4 2 8 9 8 1 3 1 4 7 6 9 0 0 2 2 5 3 8 7 5 6 7 5 4 1 7 2 8 9 5 3 3 3 4 2 6 9 5 1 9 1 2 9 3 5 3 8 0 2 6 7 8 5 2 4 6 1 6 7 0 3 2 3 6 6 7 5 7 3 8 6 4 0 6 0 7 1 8 9 3 6 6 3 3 8 7 2 9 6 9 1 9 1 5 8 9 2 3 6 7 3 5 2 3 3 4 3 4 2 2 0 1 1 3 4 9 1 6 1 9 7 2 8 8 9 8 9 4 3 8 1 6 3 5 2 8 9 5 2 4 9 4 5 0 8 1 2 1 8 3 0 7 7 0 8 9 9 7 5 4 7 8 1 0 6 3 0 7 0 3 1 9 7 8 0 7 0 2 8 0 7 0 7 6 3 5 5 2 5 2 8 2 1 9 5 7 4 5 4 4 0 8 6 0 6 6 7 8 0 8 0 9 8 0 5 1 7 3 5 2 7 4 7 8 
5 2 7 0 9 4 6 0 2 2 0 0 0 7 1 2 5 3 1 6 3 9 7 1 2 5 5 1 9 4 0 4 6 9 6 8 3 3 8 7 5 0 8 6 9 1 8 7 4 2 3 8 1 2 1 5 7 8 6 8 3 8 5 1 8 1 9 1 4 7 9 0 9 9 8 9 2 8 8 6 0 1 6 1 5 9 6 5 8 5 3 1 3 8 2 1 0 2 5 6 1 4 6 1 5 6 2 7 5 0 5 5 3 4 7 8 3 5 5 1 0 1 2 4 1 5 5 3 9 0 0 0 6 6 3 3 5 7 2 0 7 0 5 2 4 4 1 7 2 8 9 2 9 3 8 1 8 6 4 9 8 4 0 7 3 5 2 8 3 5 0 2 5 5 5 1 2 8 8 4 6 9 8 6 3 7 9 1 5 3 3 3 0 5 2 5 0 5 3 3 2 5 8 9 0 3 0 4 1 8 8 7 8 9 5 1 6 4 4 3 0 7 8 2 2 1 7 5 6 2 0 8 7 8 7 9 1 9 4 2 7 4 2 7 3 7 0 9 4 5 4 4 4 3 6 9 4 5 4 2 7 6 2 4 5 9 3 6 8 7 1 7 2 3 7 5 2 7 7 6 4 3 2 9 6 0 0 0 5 6 4 2 2 6 8 9 7 2 8 7 1 9 5 5 4 4 3 6 1 2 5 6 5 9 7 2 0 7 4 7 3 9 0 7 7 0 7 5 2 5 2 6 6 9 3 0 3 6 8 5 8 3 3 6 3 0 8 5 9 4 2 2 5 4 1 3 5 8 8 9 3 2 5 1 4 9 1 9 7 0 6 8 5 9 4 0 1 2 7 0 8 0 4 4 6 6 9 1 4 9 1 0 1 8 1 7 7 5 7 7 7 3 5 4 5 9 5 6 3 4 7 1 6 1 7 3 7 6 4 4 5 5 6 9 6 7 6 5 2 3 2 1 9 7 6 4 6 3 2 9 7 9 3 4 3 0 7 2 9 1 6 4 9 2 3 7 2 0 2 6 5 5 8 6 2 4 2 1 7 5 2 6 6 5 0 1 8 9 4 7 3 2 3 2 7 7 1 9 9 3 7 4 8 5 3 3 1 5 4 0 0 8 9 9 6 9 0 4 9 4 3 2 7 6 6 6 5 9 7 4 2 4 1 3 2 4 6 5 9 2 8 2 0 7 1 6 6 1 2 7 8 5 1 7 4 9 3 9 8 0 4 1 4 5 4 8 1 2 4 0 4 2 2 6 9 5 3 7 7 5 5 5 3 8 2 7 8 7 6 8 7 0 1 3 7 5 2 8 7 8 1 3 2 5 0 1 1 5 0 0 0 7 7 5 6 1 2 6 8 1 4 7 1 6 2 1 3 6 1 3 4 2 6 6 0 8 9 3 3 0 3 6 9 2 1 5 3 6 3 3 7 8 0 0 6 4 1 1 1 5 4 5 7 3 4 9 3 5 2 7 7 5 5 7 7 8 2 2 4 6 5 3 6 7 4 4 2 7 5 3 2 2 0 2 7 4 1 0 2 4 9 9 1 6 6 1 5 9 3 1 7 1 5 5 8 1 1 2 0 6 5 3 0 8 7 7 4 0 0 6 4 1 6 8 8 2 9 3 3 4 6 0 5 3 7 4 4 8 8 5 7 6 0 7 4 7 7 8 9 9 5 4 0 3 4 8 5 3 3 9 7 2 1 3 5 1 9 2 9 9 7 8 5 9 6 9 8 5 0 7 4 7 3 6 0 7 7 7 2 2 6 0 4 0 5 0 1 6 2 2 5 1 1 1 0 9 2 8 6 2 5 0 9 1 8 1 8 5 9 1 8 7 3 2 7 0 4 0 6 8 5 3 9 6 6 1 7 9 1 3 1 9 5 3 0 3 4 8 1 5 1 9 3 4 3 0 4 8 3 0 6 8 6 8 6 2 9 5 1 1 8 5 2 5 0 2 8 6 0 9 2 2 0 5 8 4 7 3 4 2 5 0 2 1 0 8 6 2 5 7 3 3 4 7 8 4 9 9 1 1 0 5 5 1 0 4 5 9 7 9 2 4 1 4 8 4 5 4 6 0 1 1 6 8 8 4 2 7 5 5 8 6 0 4 7 2 8 4 2 7 5 4 3 8 0 1 2 5 5 8 6 9 1 4 7 9 8 1 6 6 9 7 2 1 1 1 4 1 7 8 0 2 4 3 2 4 7 5 2 4 5 0 5 7 4 2 6 4 6 5 
0 5 4 4 8 7 5 2 8 2 2 0 6 6 5 1 3 4 6 5 9 3 7 4 2 1 9 1 5 5 6 8 2 0 2 0 9 0 5 9 4 7 9 1 6 6 2 1 1 0 6 0 5 5 6 8 6 5 9 3 2 7 1 4 9 4 7 8 4 4 7 8 3 8 1 1 4 5 2 5 7 0 7 3 5 4 3 1 1 2 7 4 1 8 0 0 4 9 0 0 3 7 1 9 5 4 0 1 0 3 9 9 5 6 2 1 2 7 4 4 9 1 0 2 2 0 2 6 0 2 9 5 1 0 4 8 4 7 0 6 2 9 6 7 7 0 0 0 8 5 6 9 8 6 2 2 6 6 1 8 1 0 4 2 0 0 3 6 7 3 5 9 4 3 9 1 5 9 3 3 4 1 5 5 7 9 7 6 7 8 6 8 0 2 3 2 3 6 9 2 1 6 4 5 9 3 8 4 2 4 0 9 5 5 6 5 6 3 3 3 4 1 4 4 4 7 7 9 3 8 3 6 4 7 1 5 0 1 9 5 5 9 6 3 6 2 0 4 5 5 8 1 6 2 8 0 1 7 1 6 7 5 2 1 2 5 6 5 6 7 2 4 7 8 9 5 0 9 0 7 4 8 1 0 2 9 3 5 8 4 1 5 1 3 8 6 0 4 3 8 3 5 2 0 5 1 8 5 2 8 4 6 8 5 9 0 6 4 5 4 8 8 9 0 3 7 6 3 3 9 1 9 6 4 9 1 7 7 8 2 7 2 0 5 8 9 7 6 3 4 1 4 2 2 6 5 2 4 8 5 5 2 4 1 8 6 4 7 5 2 9 5 4 0 0 4 1 8 1 7 4 2 3 7 4 9 4 6 5 5 4 0 7 0 3 5 8 7 2 6 9 4 1 5 4 3 0 7 3 1 4 8 5 7 5 1 8 1 0 3 6 6 5 5 8 8 2 7 7 7 5 6 1 8 4 7 1 4 4 5 7 9 3 2 8 0 5 7 1 5 2 0 1 8 5 0 6 8 9 4 5 6 2 8 4 6 5 5 2 9 2 9 0 5 3 9 7 9 6 1 4 8 1 8 8 8 0 5 6 1 1 3 7 3 1 3 2 6 8 4 8 3 4 8 8 9 7 8 8 5 9 5 6 0 3 4 0 5 1 7 6 2 2 5 6 6 8 8 2 8 4 2 1 0 1 2 0 0 0 8 6 9 5 4 1 0 0 1 5 2 0 3 4 5 8 2 1 8 0 5 7 7 8 0 7 1 2 7 1 4 8 9 5 3 3 6 4 4 0 9 6 2 5 2 7 3 5 0 4 7 6 1 4 6 1 2 7 6 9 0 0 9 0 6 3 5 4 7 9 6 8 7 9 5 0 8 1 7 9 5 4 7 6 1 3 9 3 2 7 4 2 8 4 4 6 9 0 0 6 9 7 6 9 8 2 1 6 3 8 7 8 4 6 6 5 1 7 8 3 5 5 8 3 1 2 1 0 2 1 8 4 0 4 3 0 8 6 7 1 4 6 1 0 3 9 6 4 7 6 0 2 1 8 7 4 2 8 4 5 1 2 1 4 9 6 4 7 2 3 1 8 0 4 8 5 4 4 9 1 3 1 5 6 1 4 1 4 4 5 1 7 0 2 1 9 8 6 8 2 9 1 0 1 6 8 6 0 5 8 3 0 1 0 6 3 4 7 7 0 5 8 7 7 2 9 8 2 7 6 4 8 8 4 0 6 4 8 6 1 8 1 1 0 1 8 3 7 7 2 9 2 2 6 1 4 7 9 8 6 8 2 5 6 8 7 4 2 5 0 6 6 3 7 6 6 7 1 5 5 3 4 9 5 2 3 1 0 2 9 8 0 1 3 8 1 0 2 5 8 4 1 4 7 1 0 3 8 1 8 5 6 4 7 1 7 0 4 9 4 3 7 5 6 3 5 7 3 8 2 1 2 4 5 2 7 7 7 7 0 8 3 6 2 2 7 1 4 3 2 8 6 0 3 2 3 9 1 8 9 4 2 3 0 7 5 7 7 3 4 7 1 9 4 3 3 3 7 7 7 9 6 5 1 1 0 6 2 1 5 1 7 7 5 7 6 2 6 3 5 3 3 8 4 9 2 8 2 1 7 1 0 3 7 2 7 7 8 9 0 5 3 8 2 8 7 1 0 6 6 8 9 9 6 3 8 0 3 3 1 1 4 4 6 3 6 3 2 6 3 3 2 6 3 4 6 0 7 8 6 4 
6 7 3 5 3 4 5 6 7 9 9 3 3 6 7 9 9 1 5 4 6 9 2 9 6 8 2 3 9 0 7 7 8 3 2 1 7 0 9 6 9 9 1 2 5 0 1 6 2 8 1 8 8 3 8 4 4 2 7 5 2 7 2 0 2 7 3 9 7 3 7 6 2 8 8 9 9 1 5 3 9 6 1 9 2 1 5 8 3 5 3 6 2 7 8 4 4 2 5 1 7 4 7 1 4 7 0 3 8 7 8 0 4 0 9 8 3 7 6 9 2 1 7 6 8 5 2 3 9 9 6 8 3 4 9 7 1 1 3 2 9 1 2 5 3 3 3 9 0 1 8 2 4 5 0 2 2 2 7 4 1 4 4 4 0 4 4 3 7 9 5 6 0 7 3 6 3 8 7 3 9 5 8 3 2 8 8 6 1 5 2 2 9 7 9 9 3 3 5 0 2 0 9 4 0 2 2 3 1 9 8 0 6 6 6 0 5 4 7 8 1 1 2 1 8 1 2 1 6 7 4 0 0 3 7 0 5 1 5 6 1 3 9 9 2 7 0 7 3 7 7 4 8 9 7 9 1 0 2 9 9 6 0 1 9 9 3 5 0 8 3 3 4 4 3 6 1 3 5 6 2 4 1 2 3 8 1 6 0 4 6 2 0 8 3 2 9 7 9 9 7 4 3 1 9 6 9 2 1 6 9 3 2 2 5 6 0 9 2 3 5 0 5 7 0 8 9 9 5 0 9 3 5 4 6 6 2 8 8 3 6 9 6 9 1 3 5 4 4 9 7 9 0 2 7 0 2 8 2 0 9 1 3 4 5 1 0 7 1 0 2 8 2 8 9 5 3 6 9 8 5 8 9 7 2 8 0 5 7 2 5 6 5 0 2 2 3 4 1 5 6 3 5 8 3 4 4 6 2 5 6 7 4 6 7 6 4 9 3 3 3 0 1 8 0 3 0 6 9 1 1 6 4 8 4 7 4 0 5 6 6 2 5 0 0 2 8 6 3 4 0 6 4 1 4 5 5 6 3 6 9 4 2 3 4 9 2 8 9 0 4 5 4 1 7 4 6 8 0 9 2 0 6 6 2 2 3 9 9 6 5 8 2 0 4 6 9 8 6 0 8 0 6 2 4 5 8 0 3 9 9 7 1 7 6 3 0 9 4 1 8 2 9 2 2 5 1 3 4 7 3 4 0 1 9 4 7 7 4 2 8 5 0 0 3 8 5 3 9 0 4 7 4 5 2 6 3 3 1 9 2 4 3 2 8 2 6 7 2 2 9 0 8 1 0 1 9 6 6 9 8 2 8 2 7 2 0 2 5 1 1 8 7 5 2 5 9 1 2 1 3 4 4 3 5 4 6 7 2 4 8 0 6 8 2 6 1 2 8 8 5 0 6 3 7 1 8 6 2 1 0 7 5 4 1 2 0 9 1 3 4 9 5 2 8 8 8 1 2 9 9 8 9 8 1 8 9 1 6 1 2 6 8 9 2 1 4 5 1 5 8 7 5 3 9 5 3 0 6 8 9 5 8 0 3 9 8 4 2 4 5 5 3 6 6 7 7 0 2 0 6 2 9 3 8 1 8 1 1 6 9 2 3 7 2 9 8 2 3 1 6 9 8 1 7 6 9 4 7 3 7 3 6 6 8 4 7 6 7 0 4 9 2 7 8 6 6 7 8 0 0 7 1 0 8 8 6 9 4 3 3 3 8 1 0 6 5 9 4 4 2 0 3 4 8 2 1 6 1 1 6 3 8 9 3 9 9 1 8 6 5 3 9 5 6 1 4 1 3 0 8 5 1 1 1 1 3 2 7 4 6 6 7 4 5 2 3 7 4 4 3 1 9 2 8 6 4 2 9 7 5 7 4 8 9 5 9 4 0 6 1 6 2 0 0 0 3 6 7 7 2 0 0 3 4 8 9 0 3 1 7 8 8 3 8 9 9 7 4 9 3 7 5 6 7 7 6 0 5 3 9 9 5 9 3 9 0 2 0 3 3 9 3 4 3 1 5 2 8 1 3 1 8 8 9 6 7 5 6 3 0 8 2 5 7 5 7 9 0 9 2 5 8 7 1 3 0 7 7 0 8 0 2 7 0 3 3 8 1 1 1 1 9 5 9 9 3 6 8 3 5 3 0 5 0 2 1 1 9 8 3 7 1 7 6 1 1 9 9 2 3 2 3 2 0 4 1 3 0 2 8 7 5 8 5 7 0 6 8 1 6 2 1 7 9 7 9 2 9 8 
4 4 3 0 6 3 4 0 8 7 2 6 6 9 6 1 6 9 9 7 0 6 1 3 3 2 3 2 5 4 3 1 8 6 1 6 1 8 6 9 5 0 7 3 9 3 5 8 2 4 5 5 0 6 8 4 0 1 8 5 7 1 7 5 9 0 2 0 0 0 1 7 3 8 1 2 4 8 2 6 2 7 1 5 5 2 1 6 5 9 3 3 3 2 0 2 3 2 5 5 5 8 3 8 7 4 2 3 2 5 9 6 4 3 1 0 5 4 8 2 6 1 7 9 4 8 3 9 2 8 4 7 7 7 5 6 3 8 9 5 5 0 4 9 5 7 9 2 2 7 5 8 1 2 9 5 0 2 4 3 3 8 2 2 8 8 0 1 8 1 9 5 1 3 4 7 0 6 9 4 5 6 4 6 9 3 1 1 8 7 6 3 8 9 5 6 9 5 9 9 6 8 4 9 3 8 6 6 6 8 0 2 4 7 8 5 2 2 7 0 9 3 3 7 2 0 5 3 5 5 2 3 5 6 3 1 7 1 7 3 9 9 7 6 6 8 1 9 0 8 9 1 4 5 1 8 5 6 2 3 3 4 6 1 3 9 2 2 1 9 7 2 8 5 8 7 3 2 6 5 0 7 6 6 4 7 5 0 6 7 5 9 3 1 2 8 3 4 0 6 5 0 0 6 5 9 3 0 3 9 5 3 6 1 2 3 9 7 3 5 6 0 6 1 3 9 0 8 5 2 4 1 2 7 7 7 6 0 9 1 1 4 4 9 6 8 2 7 5 7 4 1 7 2 5 1 1 5 9 9 7 6 0 0 3 9 9 1 9 9 2 0 3 8 9 1 7 4 0 4 1 4 8 9 7 3 2 0 8 3 9 7 9 1 9 4 0 9 7 9 0 9 1 5 0 3 9 9 7 9 3 8 6 1 9 3 4 3 5 4 7 7 2 8 8 3 5 9 2 2 0 4 4 2 0 4 7 9 3 6 0 6 4 6 0 6 9 4 9 7 1 8 4 5 7 2 8 2 3 3 4 4 7 8 8 9 4 5 8 7 1 9 6 7 5 6 5 7 2 5 6 3 3 0 0 2 2 9 4 8 2 1 2 1 1 0 1 6 7 1 5 0 2 1 7 0 9 5 7 4 0 3 7 5 5 0 0 9 9 6 7 3 7 9 4 1 1 5 9 8 7 4 8 9 8 8 9 7 3 8 3 5 3 3 2 8 3 4 8 2 1 7 5 0 7 9 1 8 7 0 9 6 7 9 5 5 7 7 4 2 7 8 9 1 1 4 1 4 8 1 6 9 9 3 0 6 4 3 6 1 4 5 7 1 7 5 8 4 4 2 9 1 2 0 4 3 4 6 9 5 9 7 4 8 0 6 6 7 2 3 8 6 0 8 9 7 3 9 4 9 3 5 0 6 5 5 9 2 3 1 7 2 8 3 3 9 0 9 6 2 4 6 0 7 6 1 4 1 0 0 0 5 7 3 1 5 8 3 7 3 4 6 7 2 9 0 3 1 0 1 3 6 0 5 3 6 8 0 8 0 0 8 6 8 1 7 5 1 2 2 6 6 8 4 9 7 6 4 1 8 6 4 5 6 2 0 2 2 0 2 3 1 3 1 1 4 0 6 8 3 0 6 9 0 0 0 7 9 5 8 7 3 5 4 9 9 5 3 3 5 6 6 8 9 9 1 5 0 9 5 3 1 2 4 1 4 5 1 3 2 1 3 5 8 9 6 7 4 9 3 2 7 9 2 8 1 6 6 1 5 1 6 7 5 0 8 0 7 1 5 9 3 8 6 1 8 2 1 4 4 4 8 3 5 1 4 6 7 0 7 4 3 5 3 9 8 4 1 5 5 6 7 8 5 5 0 5 0 3 1 4 7 0 9 2 3 3 9 2 5 8 8 1 6 2 0 4 6 1 1 1 7 8 2 4 4 2 1 4 7 3 0 4 5 1 8 8 5 9 2 2 8 0 3 6 2 5 0 0 6 1 2 6 2 4 2 8 8 4 4 5 9 4 1 4 5 9 4 2 9 6 5 9 8 0 5 1 6 7 1 4 8 5 2 2 1 5 0 1 1 4 8 0 0 9 6 8 9 0 0 0 8 7 9 6 8 4 9 6 3 3 0 1 0 3 4 2 0 6 3 1 1 4 3 3 3 9 1 4 1 4 4 9 3 5 7 1 1 7 7 4 0 0 6 0 3 2 4 3 0 0 6 1 4 9 5 9 8 8 4 
1 2 0 0 6 6 7 9 7 6 9 4 8 9 0 1 4 4 5 7 4 5 3 8 1 4 5 1 4 3 7 5 8 9 7 6 5 6 5 5 3 6 9 1 7 1 2 1 7 0 0 3 7 5 1 9 9 8 2 3 2 9 0 2 8 7 8 6 6 5 3 9 2 2 2 9 5 7 3 2 7 3 7 4 9 9 5 8 7 7 4 1 8 6 3 9 4 3 7 2 9 0 1 3 4 5 4 1 2 7 5 1 1 2 8 0 1 5 0 1 3 4 2 3 3 8 4 9 3 1 1 2 3 2 7 7 9 2 8 4 9 3 5 0 6 5 0 9 1 3 2 6 9 5 1 2 5 6 1 8 9 2 3 3 6 0 2 6 2 1 0 4 6 7 4 4 3 7 6 6 0 8 2 9 5 5 2 2 1 3 1 1 8 6 4 4 8 6 0 3 9 2 7 8 2 1 4 5 8 0 3 0 1 7 0 6 2 4 9 4 9 2 7 7 0 1 2 8 9 4 1 1 7 8 1 9 2 5 6 2 8 1 3 9 8 3 7 0 9 6 6 8 0 3 6 0 6 0 1 8 4 2 9 3 3 0 4 5 7 2 7 5 3 0 6 1 5 4 4 4 2 0 3 5 6 1 5 2 1 6 0 5 1 1 1 6 1 5 1 1 8 0 8 3 3 5 7 0 1 1 5 3 3 0 0 9 3 6 2 4 4 2 1 7 6 2 3 7 0 6 0 0 7 9 3 2 6 2 2 7 3 9 2 9 1 3 8 4 1 2 0 7 7 2 5 3 6 0 2 8 7 3 8 6 2 4 0 8 8 2 7 2 2 9 3 3 4 1 8 5 4 0 3 1 2 0 4 1 0 6 1 9 1 0 7 3 6 7 3 4 2 0 8 4 2 1 9 6 5 9 2 1 0 7 2 4 9 8 5 1 6 9 3 8 1 0 3 7 0 9 3 2 1 4 8 3 7 7 2 2 7 6 5 9 5 7 3 4 7 1 5 4 0 8 4 1 1 9 0 1 8 5 5 0 9 3 5 9 2 7 3 1 5 9 0 0 8 6 4 6 9 0 2 9 0 8 2 1 7 4 4 6 9 9 6 1 4 3 0 9 3 3 0 8 4 3 9 3 1 3 1 0 5 3 1 6 1 3 7 8 7 2 6 6 3 4 9 8 8 9 9 1 5 9 9 1 4 0 4 5 4 5 5 1 0 6 9 3 1 7 2 0 1 8 9 6 3 8 6 3 0 5 4 5 5 5 6 1 6 3 7 2 0 4 3 1 3 3 4 4 2 8 7 5 9 6 1 4 4 8 7 4 3 3 1 0 8 0 4 6 5 1 8 5 7 2 8 0 7 5 7 9 3 4 6 4 0 7 8 6 7 7 3 3 2 4 3 1 6 7 9 1 0 8 9 8 2 7 0 9 2 7 0 8 1 6 2 3 5 3 2 3 2 5 6 5 1 1 8 8 1 7 1 1 5 2 1 7 0 2 8 4 1 0 2 5 6 7 8 2 2 0 7 4 7 3 9 9 6 9 9 7 9 2 1 4 5 4 4 7 8 4 1 0 5 4 5 3 3 5 7 5 8 4 9 5 9 1 6 6 2 7 3 1 0 6 8 5 1 4 2 9 8 5 9 5 1 6 9 4 2 6 9 2 1 1 9 0 2 6 6 4 3 2 8 5 0 6 2 1 0 6 3 8 2 4 4 3 1 3 0 5 1 9 9 2 0 8 5 4 6 3 1 2 5 9 7 8 7 2 9 7 8 4 7 2 9 1 8 2 6 8 9 0 7 8 2 0 6 7 6 5 3 7 7 8 8 6 8 5 8 0 4 9 4 2 1 5 5 1 7 4 9 6 4 9 4 6 9 3 6 7 8 9 7 7 9 5 3 8 3 4 0 7 3 4 9 6 0 5 8 7 9 7 6 3 6 0 1 7 5 9 5 3 0 4 0 2 9 6 2 4 0 2 2 3 6 3 9 8 0 9 8 1 7 4 6 5 6 0 5 2 9 2 7 0 6 0 2 7 6 4 2 6 8 6 1 4 1 2 5 2 2 3 3 1 7 2 8 5 2 3 9 1 7 7 3 3 9 7 1 7 3 5 5 1 3 6 8 4 0 3 6 2 6 2 5 5 6 4 2 8 9 2 1 7 1 7 2 0 4 5 7 0 2 2 3 5 0 1 0 0 6 8 5 4 2 0 1 8 6 4 6 8 6 0 5 7 7 9 
9 3 7 6 3 9 0 9 5 0 0 7 0 9 5 5 3 0 8 7 8 4 1 7 2 7 7 9 6 6 9 5 9 8 3 5 7 3 4 2 3 6 9 3 5 7 1 1 7 9 8 7 3 9 4 8 8 3 7 6 1 8 1 1 6 4 6 4 7 2 8 2 8 0 5 6 7 8 7 6 7 7 3 1 8 0 1 8 5 8 4 7 9 7 0 5 1 8 1 0 0 0 2 8 2 9 6 1 8 3 7 7 2 2 0 0 4 1 8 2 0 2 9 9 9 1 6 2 9 8 4 1 0 6 1 2 8 8 3 8 3 2 5 6 6 6 6 1 7 5 5 9 9 6 0 9 7 7 3 8 7 8 9 7 6 0 1 4 0 6 2 4 0 0 0 6 6 6 9 3 3 4 3 3 0 3 4 9 2 7 7 9 7 8 8 4 1 9 8 1 5 3 7 7 3 7 4 1 6 5 4 9 2 9 2 4 5 8 4 7 8 3 9 5 4 7 9 5 9 0 8 6 5 6 4 0 5 0 1 1 5 7 1 7 7 5 2 4 4 8 3 2 1 2 9 7 2 9 4 1 1 3 7 6 1 1 6 6 1 9 0 9 6 1 6 5 6 0 9 2 8 3 6 2 7 6 9 9 5 6 0 8 1 0 4 2 3 2 0 5 1 0 4 7 3 2 3 2 3 4 4 3 7 1 7 7 9 9 6 6 5 9 4 6 9 8 0 4 2 2 9 5 3 5 4 8 0 9 0 5 4 5 0 3 8 8 0 7 7 9 3 4 0 9 0 1 7 0 5 1 4 7 6 7 2 2 6 4 2 8 9 6 5 0 1 3 0 4 2 7 3 7 1 5 6 3 6 5 5 1 6 9 8 4 9 3 7 7 9 1 5 1 7 1 1 0 6 1 4 9 0 9 8 3 4 5 8 2 2 3 6 1 2 6 5 3 9 4 0 1 5 8 2 4 9 5 7 5 8 1 6 8 3 5 3 9 2 1 2 4 6 8 5 0 4 3 4 6 9 4 7 7 2 1 1 3 6 0 1 4 2 7 4 7 4 7 6 6 0 0 3 6 8 8 6 5 3 0 3 3 7 2 0 1 3 3 5 9 4 8 3 8 7 7 5 2 6 3 0 6 4 3 4 4 4 0 9 7 3 4 0 0 6 2 3 9 6 0 0 2 8 3 0 6 2 7 8 0 0 8 8 4 4 2 1 8 5 2 5 8 7 8 0 3 2 3 5 0 4 5 2 2 1 4 0 5 1 0 6 2 1 6 8 5 9 1 3 6 4 0 4 1 0 4 6 5 9 3 5 3 9 0 8 2 4 8 7 8 9 5 0 0 4 0 7 3 2 2 1 6 2 5 9 5 1 7 2 0 1 7 6 2 9 4 6 4 4 5 2 5 1 4 7 5 6 4 0 8 6 3 6 1 8 7 8 1 5 0 3 8 7 9 2 9 5 0 3 2 5 7 7 8 3 7 5 9 1 7 0 0 0 6 1 0 6 9 1 3 1 5 3 0 6 5 9 4 5 2 6 2 1 5 1 4 2 6 6 6 6 6 8 6 4 9 7 0 0 0 3 1 5 6 1 4 3 1 8 8 5 6 3 9 3 4 5 8 2 1 4 8 7 2 7 2 3 4 4 5 4 8 8 2 4 9 8 8 2 6 8 0 4 3 1 7 7 6 5 2 0 1 2 9 5 9 3 0 5 8 5 2 6 3 6 2 5 4 2 9 2 1 1 6 4 2 5 4 9 3 8 9 4 2 0 2 2 4 2 9 2 0 1 0 5 7 2 0 3 5 2 5 8 3 3 2 6 9 8 7 2 6 8 8 9 8 2 3 2 5 4 4 7 8 4 2 7 9 5 1 4 7 8 2 0 2 6 8 1 5 5 5 3 5 3 4 4 6 9 8 3 6 5 2 4 1 4 3 0 1 4 6 8 3 8 1 5 7 9 8 4 7 3 9 4 8 4 8 6 5 9 1 1 4 3 7 7 0 1 8 1 7 4 0 2 5 3 9 4 2 7 8 1 2 7 6 1 3 6 9 9 7 1 2 1 4 2 9 4 3 9 8 2 5 8 7 2 1 6 6 5 6 6 9 0 4 7 3 7 5 3 8 3 4 3 6 0 5 5 7 0 6 5 2 2 5 1 6 6 0 3 3 6 9 4 8 5 1 2 5 7 7 3 0 1 6 6 3 1 4 0 1 2 5 6 6 0 9 3 8 9 8 
4 7 9 8 6 5 2 8 2 9 5 5 1 8 4 9 1 7 5 4 1 8 1 9 4 2 8 9 2 8 7 8 5 7 7 1 4 9 1 6 0 8 3 3 8 7 2 2 7 8 6 8 8 7 7 2 1 5 2 6 3 1 4 9 0 3 2 6 4 4 2 4 4 8 9 3 7 2 5 4 2 1 2 2 0 9 4 2 7 8 0 0 2 4 1 2 8 6 9 2 2 3 9 6 1 8 9 9 2 6 5 6 9 8 8 0 9 5 4 6 5 4 9 7 0 2 2 0 8 1 5 2 4 4 9 8 4 0 9 9 7 4 5 6 4 6 6 4 1 2 2 8 6 3 6 7 8 0 9 8 1 4 1 7 0 0 7 5 0 6 6 9 3 3 6 7 9 2 3 2 7 8 1 3 3 9 2 3 9 2 2 2 8 5 1 9 7 9 6 9 7 2 9 0 7 5 0 7 9 5 1 6 5 4 2 9 5 6 4 4 8 8 8 7 3 0 8 0 9 4 0 8 8 1 9 5 6 1 4 7 6 6 4 4 0 8 5 6 4 9 2 3 8 3 2 1 3 2 4 4 6 6 2 4 7 3 9 5 6 6 2 5 2 8 9 4 6 4 2 1 5 7 6 3 0 0 7 5 2 3 1 8 9 5 4 6 1 5 3 7 1 5 2 3 4 3 0 2 9 2 3 5 1 9 0 1 1 7 8 3 0 9 1 1 5 7 9 6 3 2 5 4 8 8 0 4 3 2 8 3 4 2 8 8 3 8 9 5 8 0 8 0 9 2 2 6 9 1 4 4 4 0 1 4 0 3 0 3 5 8 6 1 2 6 9 8 5 1 3 5 1 3 5 2 7 7 9 9 1 3 3 5 5 6 1 5 9 3 9 4 1 5 6 6 4 7 4 9 8 9 6 9 2 1 2 2 1 3 1 2 8 6 9 4 3 0 9 4 5 0 9 6 8 7 4 2 4 8 3 5 7 9 6 2 2 8 4 3 3 7 7 2 5 6 8 8 8 9 3 3 0 4 2 8 3 6 2 7 7 5 4 6 4 1 0 8 1 6 2 5 3 1 9 9 8 7 9 8 6 4 4 8 0 8 6 3 6 8 3 3 5 7 2 1 8 2 0 0 9 4 7 4 5 6 5 5 5 5 6 3 1 0 2 2 8 0 5 4 1 8 0 6 6 2 8 6 4 0 6 5 4 5 0 1 1 5 7 6 2 5 0 4 5 4 6 5 4 3 9 5 2 1 2 0 3 2 8 0 4 7 7 8 2 7 1 4 5 0 2 7 5 4 3 0 8 1 7 5 5 9 0 9 0 4 1 6 8 9 8 2 6 5 0 1 5 4 5 0 4 9 9 0 6 3 2 6 4 0 1 1 9 4 2 1 8 3 7 7 5 5 9 1 3 2 2 8 6 9 8 0 1 9 2 9 2 5 5 9 7 9 2 8 3 5 9 1 8 9 0 3 6 2 7 9 4 1 7 2 3 7 4 4 7 7 5 1 4 2 2 1 1 5 9 4 0 0 8 8 9 0 4 6 2 1 7 8 4 7 0 7 4 7 3 3 4 8 7 8 1 9 1 4 4 2 1 4 2 1 5 4 1 9 2 6 2 9 4 6 6 7 4 3 4 9 8 8 0 5 8 1 5 1 7 9 3 8 6 7 9 1 1 1 0 5 7 2 5 3 0 3 0 6 6 6 6 7 6 6 2 6 9 9 7 6 1 2 5 7 0 6 8 3 7 0 1 6 4 6 2 4 1 2 1 0 1 9 7 7 7 9 4 8 1 1 4 2 6 1 9 8 0 7 1 7 9 4 6 3 0 8 7 2 2 0 2 3 9 1 3 8 2 7 6 3 0 3 5 6 4 6 4 4 5 8 4 4 2 2 7 5 2 5 9 6 7 3 0 7 4 5 5 6 2 4 2 2 7 7 1 3 6 5 0 1 5 6 6 8 8 3 3 0 0 4 6 8 7 8 7 1 5 4 9 7 8 1 2 5 1 3 1 7 0 1 0 6 7 6 4 5 2 9 7 2 5 5 2 2 6 9 5 1 6 6 1 4 8 3 2 1 8 3 0 8 4 0 4 3 9 0 8 1 1 7 5 6 4 8 0 0 9 5 4 5 2 5 2 2 0 6 5 8 9 5 8 5 7 3 0 6 5 0 7 9 7 3 7 1 3 8 4 2 5 8 0 7 5 4 1 5 0 8 5 1 5 3 8 3 8 8 
1 4 8 9 5 7 4 2 8 9 0 4 3 6 4 5 5 9 9 7 6 9 5 1 2 3 7 0 6 5 8 7 1 8 8 6 5 4 9 6 5 1 0 9 7 5 4 3 6 4 2 5 5 9 6 0 2 5 0 0 1 1 0 2 9 0 9 7 5 0 3 0 1 5 1 9 2 6 4 1 2 8 6 9 9 4 9 4 0 2 6 1 3 6 5 4 7 4 3 4 6 6 6 8 4 8 9 6 6 5 7 0 3 3 1 4 8 1 0 0 5 7 1 0 3 6 4 2 3 8 6 9 6 5 9 0 3 8 9 1 3 8 1 6 2 2 3 2 5 3 4 0 0 5 0 6 3 7 8 8 7 7 0 5 2 9 8 7 8 7 8 1 5 9 0 9 3 3 3 9 8 7 1 9 4 4 7 8 1 7 8 8 6 8 5 0 8 3 7 6 0 7 9 8 8 9 7 2 4 3 3 3 0 4 4 5 8 3 5 1 0 3 1 7 2 7 7 0 0 7 8 3 4 7 1 3 9 0 5 3 3 8 8 6 4 2 1 3 5 6 6 8 9 8 5 3 5 4 5 5 1 3 0 6 1 1 9 0 4 4 5 9 4 4 5 8 8 6 3 6 4 0 4 6 8 9 9 5 5 7 0 7 0 1 3 3 4 2 5 8 8 1 0 2 7 5 2 5 4 8 1 8 0 7 6 8 8 8 3 4 5 5 1 5 8 4 1 3 8 6 3 6 7 3 0 6 1 2 2 5 2 5 3 2 3 0 2 1 0 5 5 5 3 6 0 1 2 1 6 0 0 2 8 9 7 8 6 8 3 8 3 5 5 9 0 8 1 2 2 1 8 7 6 3 6 8 6 0 2 5 3 2 7 1 1 6 2 7 5 5 7 0 2 3 9 2 1 2 7 3 3 7 3 1 0 1 0 6 1 4 1 4 6 0 8 9 7 0 7 2 7 6 4 1 9 6 6 3 8 3 6 4 0 1 5 0 2 7 8 6 1 2 2 9 2 0 9 9 2 8 3 1 4 0 3 4 6 9 7 4 4 5 8 4 7 6 6 1 3 6 9 7 8 2 6 1 4 5 2 7 3 8 8 0 8 1 4 4 2 3 0 8 8 9 2 7 7 0 1 0 7 0 7 5 2 4 8 7 1 1 6 7 1 4 7 9 8 3 5 2 6 5 1 6 4 5 6 3 6 7 4 5 9 3 0 4 9 9 3 1 2 9 0 3 5 7 4 5 2 9 0 8 4 3 6 1 8 2 4 6 9 0 1 9 4 2 3 3 3 6 6 7 7 6 0 2 3 6 0 5 5 0 5 9 3 2 2 3 6 7 0 6 7 3 7 3 7 2 7 2 0 3 9 9 0 1 3 5 7 3 3 2 5 0 4 0 2 8 4 1 7 6 7 7 9 6 0 9 0 7 1 2 3 1 1 3 2 6 0 2 0 3 6 7 4 0 8 8 1 2 9 8 0 8 5 1 6 6 0 8 5 2 0 8 5 3 1 7 0 4 9 2 7 6 9 3 8 9 4 1 3 5 0 3 4 7 5 2 5 7 1 1 9 3 9 4 9 3 4 9 7 5 3 6 3 4 0 4 4 6 5 7 1 5 3 5 5 0 0 0 7 1 1 9 6 3 3 5 8 9 6 5 5 1 3 8 6 5 2 2 1 0 9 3 7 4 0 2 4 0 3 2 3 4 1 2 9 6 7 7 8 6 2 3 7 8 3 5 3 8 7 5 8 9 0 5 3 0 0 0 1 3 2 6 9 5 8 9 3 8 6 1 4 1 6 3 9 2 9 4 2 6 9 2 5 9 9 1 2 9 1 3 2 5 1 2 0 2 3 5 0 9 9 6 2 5 9 3 9 8 8 1 7 7 3 2 9 3 5 1 2 6 6 7 1 9 1 3 1 4 9 3 5 8 9 8 5 1 1 5 1 1 6 8 9 2 3 0 7 8 1 1 5 9 8 8 8 1 2 0 5 1 3 3 1 5 3 6 6 6 3 7 8 0 6 9 4 1 9 1 9 0 2 6 1 3 5 9 6 7 1 2 0 5 7 3 2 0 9 8 6 3 7 6 5 5 5 1 6 4 2 6 6 6 4 7 1 9 7 8 8 8 2 8 5 9 1 7 1 3 7 9 8 7 6 5 2 1 6 1 8 8 9 4 6 3 4 0 3 3 8 1 3 2 2 9 3 5 8 6 0 8 5 8 7 3 3 9 7 1 
0 5 9 1 1 8 5 5 8 0 0 8 3 4 2 5 5 5 3 5 3 3 3 8 4 0 4 9 2 1 1 4 8 2 6 9 2 3 7 2 3 7 2 6 3 4 2 8 1 7 4 4 2 9 5 8 2 9 8 6 2 1 0 0 5 8 1 8 1 0 2 4 0 5 1 3 1 5 2 3 4 8 9 6 9 6 5 1 5 5 7 9 8 0 1 3 0 5 3 2 5 6 8 7 3 9 1 4 6 5 9 0 5 9 7 4 7 4 8 5 1 5 4 9 7 6 4 8 3 8 2 0 6 0 8 9 0 1 3 8 6 5 9 1 6 8 7 3 4 5 8 5 3 3 4 0 1 8 0 4 8 2 4 4 3 4 5 5 5 1 3 1 6 2 4 2 2 4 5 6 9 6 1 2 9 7 5 2 8 5 8 8 8 4 3 3 9 0 8 6 1 1 0 7 6 6 1 0 0 9 7 0 5 0 4 6 0 1 0 8 7 8 6 7 4 1 0 5 2 0 2 3 3 2 3 9 8 4 0 9 3 9 1 0 9 7 6 9 9 6 9 8 6 8 7 1 9 9 6 3 9 0 9 2 2 2 4 3 8 6 2 4 5 5 4 6 2 3 8 3 9 7 1 6 5 8 9 7 7 7 0 8 8 9 1 2 3 7 5 2 3 9 8 8 4 2 6 9 5 4 2 7 4 6 5 9 6 4 8 6 1 1 4 1 0 7 4 6 4 9 0 7 9 8 7 5 0 4 6 8 0 9 7 4 7 2 6 3 6 4 9 9 5 6 3 8 3 7 4 0 8 4 9 9 2 9 7 4 5 3 4 5 4 3 0 1 5 6 7 3 2 6 5 8 4 8 8 0 7 4 2 7 8 1 7 2 2 6 8 7 9 5 3 4 8 5 7 6 1 4 9 3 3 4 3 7 4 1 7 1 5 9 9 5 3 8 9 5 4 0 5 3 7 8 9 7 3 7 3 6 1 3 9 6 9 5 4 4 6 3 7 4 5 6 1 0 6 3 5 0 3 2 6 2 0 7 9 5 4 3 1 8 8 3 4 7 8 0 3 6 4 1 2 1 9 6 1 6 9 8 6 4 1 4 6 3 2 5 9 8 0 2 6 8 7 3 6 7 3 9 4 9 0 8 0 0 4 1 8 3 0 4 9 1 1 5 4 3 3 5 1 3 8 0 2 7 3 8 5 6 9 1 6 2 9 8 4 6 0 2 1 2 8 1 5 9 8 1 4 1 7 8 5 7 8 7 4 1 7 1 9 8 2 7 2 4 6 6 2 8 0 3 0 1 6 5 2 5 8 7 6 5 7 3 4 5 2 1 8 1 2 7 0 7 7 2 3 3 1 5 1 3 8 3 4 7 0 7 2 8 6 0 6 3 4 2 0 8 3 8 0 8 7 2 7 4 6 0 9 7 5 2 3 5 5 7 2 7 6 6 8 2 7 4 7 3 8 7 1 2 7 3 2 5 5 9 1 2 1 1 9 6 3 2 1 1 2 4 8 8 0 8 3 9 2 0 2 1 0 6 5 7 9 9 4 5 0 6 9 1 7 8 7 2 3 0 3 7 4 4 7 7 2 0 8 7 3 1 0 3 9 7 2 0 8 7 7 8 3 6 9 2 7 8 4 2 8 0 9 5 4 6 4 8 9 2 7 2 5 7 7 4 6 1 7 4 8 4 2 3 1 3 5 8 3 0 0 2 2 1 9 6 9 3 6 8 7 4 2 3 3 9 9 0 3 6 6 1 3 1 7 4 4 2 4 8 4 6 2 6 9 3 4 8 6 3 7 5 9 9 8 2 1 0 4 4 8 3 7 1 4 4 7 0 9 1 0 5 9 2 2 8 5 8 7 3 1 6 1 0 7 9 5 8 1 1 4 0 4 4 1 8 0 9 9 9 2 9 5 2 4 9 0 1 9 9 7 1 5 8 3 3 9 0 3 1 2 0 1 8 6 2 9 6 3 8 6 6 9 3 0 5 4 2 9 3 2 6 6 9 6 0 4 5 2 8 6 6 0 7 5 6 2 4 2 7 4 0 3 5 5 3 1 9 8 0 3 0 8 9 9 4 1 4 9 4 4 8 0 6 7 5 2 9 1 6 9 5 7 2 1 2 8 4 4 6 4 7 8 2 8 9 8 0 5 7 4 9 7 6 7 5 4 9 6 5 6 5 1 5 0 4 7 8 8 1 6 4 0 4 8 9 3 6 9 9 5 5 0 3 
3 8 0 7 9 6 3 5 2 6 2 4 2 0 2 0 3 0 6 6 4 4 5 9 2 6 0 7 3 3 2 6 3 2 4 2 1 9 0 5 7 2 9 9 4 1 1 0 3 7 6 7 3 3 8 5 9 1 4 2 4 7 8 9 1 4 1 2 3 3 7 0 8 8 1 4 9 2 6 4 1 2 1 4 7 2 9 6 3 4 0 9 3 1 8 4 5 1 9 1 7 8 1 5 7 5 1 8 7 8 3 9 2 6 5 0 8 5 8 3 1 9 2 4 0 2 0 5 4 9 6 1 8 0 8 5 7 1 3 4 9 8 5 2 5 1 2 5 8 2 9 9 1 3 3 1 8 3 9 4 5 7 7 3 9 5 0 6 6 5 3 8 4 0 2 1 1 6 6 1 8 7 0 0 1 5 3 1 1 4 5 6 2 2 1 3 9 3 2 7 8 5 5 4 5 7 5 9 3 4 0 2 1 3 2 4 8 7 5 9 2 0 7 6 2 8 9 1 1 1 9 2 8 6 8 6 4 4 5 9 8 7 1 1 0 5 6 1 3 1 2 7 4 0 3 8 0 2 2 4 6 3 8 4 9 6 0 5 2 7 5 2 7 6 4 7 4 0 0 9 3 3 6 9 5 9 8 7 3 0 3 9 3 1 6 4 8 8 0 2 8 5 5 5 3 9 2 9 1 5 8 4 8 4 6 5 5 4 2 9 4 6 8 9 9 6 3 7 5 3 0 3 0 7 0 4 6 2 3 7 7 2 3 7 8 9 4 4 5 7 3 1 5 3 0 4 2 4 4 9 9 6 4 0 3 4 4 1 8 9 0 8 3 5 5 2 7 2 8 2 9 3 4 6 8 6 2 0 0 8 9 0 6 5 2 1 9 8 2 8 7 4 6 3 0 3 7 9 5 5 3 6 8 7 4 8 4 7 9 6 7 0 8 4 6 0 5 5 0 0 5 8 6 1 1 8 7 8 7 4 5 1 1 5 0 7 3 4 6 4 3 4 5 3 0 1 6 7 8 6 9 4 4 6 7 7 4 4 7 2 9 2 5 2 9 5 9 3 2 8 7 5 2 4 0 2 7 6 1 6 3 1 0 9 7 9 7 3 6 6 5 5 1 0 9 0 8 0 5 0 8 5 7 2 9 7 6 7 4 8 3 9 1 5 8 8 6 7 1 2 4 9 9 5 1 8 5 9 1 3 9 1 8 6 4 7 6 2 6 0 0 1 9 1 6 9 1 5 7 5 7 3 4 7 8 5 7 5 7 8 8 8 2 8 7 6 6 3 8 2 5 1 6 6 4 4 5 6 9 4 1 7 7 7 6 5 4 3 3 1 4 3 0 6 2 7 4 0 2 2 4 7 5 0 3 0 5 8 8 4 3 9 3 2 8 9 0 2 3 3 6 9 8 8 5 2 7 1 2 9 3 9 6 1 1 1 1 6 9 1 3 4 2 6 7 0 8 7 4 3 2 0 2 0 0 9 5 7 0 9 8 5 8 6 6 0 7 9 8 9 0 1 3 2 0 2 4 8 1 9 1 5 1 3 8 4 4 3 1 4 2 2 9 1 8 6 3 6 7 1 5 8 5 0 2 5 5 9 5 6 8 6 4 1 1 2 5 5 5 9 1 7 1 0 0 9 8 3 7 6 7 4 6 2 7 0 9 2 9 4 0 7 2 4 1 3 8 6 0 3 5 1 3 8 1 3 0 2 9 9 8 8 4 6 2 3 6 1 7 6 5 9 5 7 4 6 2 4 3 2 8 0 5 1 1 6 6 1 0 7 2 8 7 6 4 9 1 1 0 8 9 7 8 4 4 4 1 8 8 6 0 6 8 5 9 9 4 8 2 4 7 5 5 5 3 1 4 5 4 5 3 3 2 1 8 9 5 9 7 6 5 0 4 3 7 4 5 3 4 7 0 1 2 5 6 6 6 3 1 1 8 6 6 2 8 4 3 5 5 1 1 0 3 6 6 0 2 3 4 6 0 4 9 5 1 8 3 9 1 6 2 1 2 9 3 2 3 9 8 9 0 1 1 5 9 9 7 1 2 1 9 5 7 1 2 0 9 5 0 0 1 2 1 3 3 6 6 7 5 6 8 7 9 1 2 9 1 0 2 5 3 4 2 3 5 4 3 4 9 5 4 0 0 5 6 3 1 4 2 7 2 0 6 1 2 9 0 5 9 5 2 4 9 5 7 4 9 1 8 1 8 4 3 8 1 9 2 4 3 4 
3 7 7 0 9 1 9 1 6 0 6 0 4 5 5 4 1 7 7 1 8 5 5 1 4 6 3 6 1 8 0 4 6 9 4 5 0 5 8 8 5 5 9 2 2 6 6 4 3 3 5 3 8 3 7 4 9 0 0 2 8 3 9 6 2 5 1 3 1 0 1 8 7 2 2 9 9 0 5 2 3 3 8 4 6 5 8 7 5 1 0 5 6 1 2 8 6 3 3 9 5 7 8 4 9 2 4 0 3 1 3 8 4 1 2 2 8 3 0 3 6 0 8 2 1 0 0 9 6 6 9 3 5 9 8 6 1 4 7 4 7 2 3 2 5 7 4 3 2 6 6 8 6 6 0 9 9 3 1 5 1 0 0 6 9 0 2 2 4 9 9 4 1 2 6 8 1 2 1 4 9 9 4 7 6 5 9 5 0 0 2 1 2 4 9 3 5 1 5 1 3 4 5 6 8 3 5 2 8 6 6 9 8 0 6 4 7 7 1 7 9 5 0 1 9 9 6 4 3 2 8 6 8 3 4 9 7 1 1 7 0 7 6 8 9 4 2 9 2 5 6 3 0 9 7 9 8 3 6 1 7 4 9 8 9 4 7 8 7 8 5 7 7 1 5 8 8 9 7 0 4 6 5 4 5 2 6 3 8 4 7 7 0 6 5 9 2 4 0 0 4 5 9 3 9 5 2 7 6 1 9 1 9 6 7 4 9 3 0 9 9 9 6 9 7 4 9 0 8 9 2 5 6 3 8 5 8 2 4 5 4 5 8 3 2 5 0 3 1 2 2 0 1 0 0 8 6 1 0 7 0 2 2 6 8 0 4 6 3 0 3 9 6 1 4 8 9 4 1 2 6 5 2 9 7 4 8 4 5 8 1 5 3 5 4 1 5 0 9 0 0 3 1 8 6 6 6 7 2 9 9 1 6 4 0 6 8 8 0 4 9 3 1 2 8 7 5 5 7 4 6 0 9 7 8 8 5 7 5 8 8 7 9 7 1 9 3 9 0 5 5 9 8 7 1 8 4 6 3 4 2 1 4 2 1 4 0 6 3 7 6 2 4 5 1 7 7 4 9 7 9 4 8 9 3 1 7 0 7 0 4 1 2 0 3 5 6 5 1 0 3 8 4 9 5 5 9 4 1 0 3 0 6 1 9 0 2 8 0 1 8 6 5 2 8 8 7 4 6 1 4 1 1 0 2 8 5 1 3 6 1 8 8 8 2 9 0 4 7 2 8 8 0 3 2 8 3 2 2 9 3 9 2 6 9 5 4 7 8 9 5 0 8 4 0 0 5 2 6 5 4 6 5 4 1 7 2 7 9 6 8 4 5 1 2 7 6 7 4 4 6 9 6 6 5 8 8 1 0 5 6 6 3 1 0 5 0 4 2 2 1 2 8 8 3 1 5 1 8 1 8 6 1 6 5 6 5 3 9 7 0 7 4 4 0 6 1 1 1 5 5 4 7 3 4 3 4 0 4 4 1 2 1 4 1 6 3 6 1 4 5 2 2 9 8 4 6 1 7 9 6 2 5 5 6 9 8 0 9 5 5 3 9 8 9 0 6 2 8 7 9 4 1 1 3 1 5 1 2 3 2 0 5 7 6 3 7 6 6 6 1 3 1 3 3 3 3 9 7 2 8 6 6 2 7 1 3 5 3 8 0 5 8 7 5 6 1 2 3 9 0 6 2 2 9 5 5 5 6 2 7 4 1 5 8 8 8 4 5 3 2 5 1 2 3 6 9 4 8 4 3 8 2 7 2 4 2 9 9 0 4 8 4 5 5 5 3 3 9 9 7 1 4 8 3 9 4 4 3 2 0 8 0 3 5 5 7 9 4 6 9 8 6 6 3 1 1 9 4 2 0 1 3 4 1 8 6 5 5 9 9 5 0 0 8 7 7 5 7 1 3 8 0 9 6 3 2 9 4 7 1 4 0 4 1 2 5 7 9 2 6 9 7 8 1 6 6 8 3 5 9 9 5 1 0 2 5 3 1 1 2 3 6 4 9 7 6 6 4 8 8 2 7 6 1 8 4 7 6 9 4 7 8 9 9 1 1 6 4 5 7 6 8 3 0 7 0 9 6 6 7 4 9 6 0 0 4 6 9 2 6 3 9 6 4 0 7 6 6 3 1 4 1 1 9 4 0 0 3 6 6 2 1 7 8 3 7 4 2 8 6 0 3 7 8 8 8 6 6 4 1 9 0 3 2 0 7 2 2 2 1 0 4 4 8 4 7 5 8 1 
6 6 1 9 3 0 9 3 8 7 0 9 6 0 4 0 2 1 3 4 5 4 5 9 8 3 5 7 0 3 9 6 9 2 8 5 2 9 8 2 7 8 2 5 1 8 6 3 2 1 8 7 5 5 9 5 0 4 4 0 8 5 9 9 8 9 4 2 8 5 5 5 3 9 1 4 7 9 8 9 0 8 9 7 3 8 4 3 2 8 5 2 6 6 2 6 5 8 8 4 3 5 1 7 6 4 3 4 3 1 5 3 1 4 0 4 2 4 9 7 5 7 9 1 3 1 7 9 0 7 5 5 3 6 2 9 1 6 5 6 9 3 0 1 9 2 7 4 7 9 1 4 6 0 5 9 4 4 0 6 1 5 1 6 4 6 8 5 2 5 3 3 8 3 4 8 8 4 4 7 3 5 1 9 7 8 0 3 2 1 9 5 6 1 4 0 9 4 7 1 9 1 6 8 6 1 8 4 7 2 1 0 9 2 1 6 2 1 0 6 2 1 2 9 4 8 1 3 2 9 4 1 0 3 1 8 6 1 3 3 3 6 3 4 1 6 1 3 7 3 0 0 4 4 1 1 4 2 4 6 3 1 9 5 4 3 4 0 4 9 3 0 5 8 4 6 4 7 2 1 2 2 3 9 8 6 0 2 9 4 0 2 5 9 8 9 2 4 1 9 3 4 9 8 4 5 7 8 3 9 2 5 3 5 6 3 4 6 7 3 1 7 7 8 6 7 0 1 1 1 0 4 8 1 5 2 6 2 1 9 3 5 7 8 2 5 3 6 2 0 1 5 7 9 3 5 8 5 8 0 7 8 6 7 1 1 9 8 5 2 9 0 7 6 0 2 4 3 8 6 3 0 1 0 1 6 8 9 2 6 1 1 5 8 0 6 1 9 6 9 4 6 1 3 4 2 5 8 7 6 4 1 8 7 3 9 6 1 0 0 8 2 1 5 2 3 3 5 2 0 6 6 6 0 2 0 4 7 9 1 5 5 4 3 5 8 4 1 9 5 1 9 9 4 4 3 7 8 0 1 0 7 0 6 9 2 8 3 9 9 4 5 5 9 0 0 9 5 3 0 2 4 0 1 0 6 6 7 6 6 8 6 5 0 2 4 2 3 9 4 2 4 9 9 5 1 9 4 6 4 4 8 8 4 1 0 1 7 7 9 6 8 6 3 8 0 0 1 3 9 7 6 3 8 5 0 9 7 4 6 1 9 6 2 5 8 2 8 7 2 8 3 2 6 7 0 6 7 3 0 6 0 6 2 0 3 2 0 0 9 6 4 0 4 6 5 2 0 6 0 2 6 5 4 2 2 7 8 1 2 8 0 5 6 2 5 2 6 7 4 5 3 8 5 0 6 3 2 9 1 4 3 7 0 8 1 2 7 9 6 1 0 6 8 8 0 4 0 6 1 7 4 7 7 1 7 6 6 1 5 7 6 8 6 6 8 7 0 7 9 6 9 9 2 7 9 4 3 2 1 7 9 7 6 6 8 5 4 7 6 9 6 4 0 3 2 8 0 3 6 1 1 7 0 4 6 2 0 2 4 1 9 5 0 7 3 1 2 8 8 0 7 4 7 7 9 9 8 0 2 6 1 4 3 4 0 9 8 0 1 2 4 2 7 4 1 2 7 5 0 5 8 0 2 5 9 1 4 7 3 9 3 7 5 8 3 5 0 1 7 3 3 3 8 2 0 9 4 7 5 7 5 3 7 7 0 6 0 4 6 4 5 9 3 0 0 6 7 0 7 5 3 2 0 1 6 0 3 2 8 0 9 5 3 6 4 3 5 4 9 1 0 5 2 3 7 2 1 5 4 0 2 0 2 2 3 0 3 6 3 3 6 2 8 1 1 2 6 6 8 8 7 9 5 1 4 2 4 8 7 8 8 9 0 3 4 4 3 7 0 8 2 9 1 2 0 4 6 9 0 4 7 9 5 2 0 2 4 6 0 4 7 8 3 7 1 9 1 7 6 4 5 0 3 8 2 5 2 8 4 4 5 1 5 2 3 8 6 0 4 6 4 3 7 9 1 0 9 4 7 7 8 3 0 1 3 2 7 8 3 3 2 0 5 0 4 0 8 1 0 2 7 6 6 4 6 9 5 7 3 4 6 2 9 6 5 3 1 4 3 4 8 5 6 3 5 0 5 5 1 6 0 1 4 8 7 2 7 2 9 0 9 6 4 8 4 2 3 5 6 6 1 4 4 7 9 1 0 7 7 1 3 7 2 9 5 0 2 4 4 
1 6 5 9 3 4 4 5 9 1 3 8 3 0 2 0 9 5 2 6 2 4 1 1 8 3 8 0 5 4 5 6 1 2 8 4 8 4 1 8 5 4 6 8 4 0 1 6 5 3 4 0 9 8 3 8 1 4 8 6 8 5 4 1 8 2 7 6 8 8 6 4 3 4 2 9 6 5 5 2 1 0 4 0 8 9 8 9 5 9 7 4 6 1 7 4 6 5 3 4 3 1 8 8 6 3 8 2 0 5 6 1 7 2 2 7 4 2 8 9 1 5 5 8 7 3 4 3 8 9 9 3 3 8 2 9 3 2 3 3 9 2 5 7 6 7 4 0 1 3 2 3 8 7 3 7 0 9 2 8 1 2 2 4 2 6 5 5 0 0 8 9 2 5 6 1 4 3 3 6 8 5 1 6 3 6 6 3 5 8 4 8 2 8 2 4 6 9 1 6 0 2 7 4 7 6 5 2 9 9 8 7 4 9 5 9 5 1 5 2 2 9 1 6 9 5 3 5 5 4 3 7 6 0 1 6 6 7 8 5 8 8 4 4 9 0 4 4 3 9 8 7 0 1 4 9 9 7 6 6 3 9 3 0 9 4 6 6 3 6 3 3 4 8 8 3 0 4 9 3 5 9 1 5 1 7 6 2 4 2 8 7 3 3 9 2 7 7 0 3 3 6 6 9 6 6 2 6 0 3 1 5 3 4 2 6 1 8 0 7 2 8 5 5 1 6 0 0 4 2 5 7 0 2 7 6 8 1 4 1 7 8 8 2 4 1 8 6 1 0 3 6 8 0 3 1 7 5 3 3 8 9 0 0 3 9 9 3 3 3 4 0 3 3 4 8 6 2 4 9 2 9 5 2 2 1 5 1 6 8 4 6 7 6 7 2 8 6 6 3 1 0 5 5 5 9 3 3 3 9 3 7 0 0 9 4 1 4 5 8 4 1 6 4 0 3 6 0 1 2 3 3 5 0 0 2 9 5 6 2 4 1 9 6 1 0 1 3 6 8 3 0 2 9 6 4 5 3 4 6 5 9 1 2 9 1 5 0 6 1 2 2 2 3 1 5 5 2 8 3 2 3 5 6 3 2 0 0 5 6 8 2 7 0 5 6 3 2 8 2 3 2 4 7 5 5 2 2 9 3 5 4 8 1 0 3 3 3 3 0 9 2 4 7 4 1 5 7 3 4 9 8 6 6 7 4 3 0 6 3 5 4 9 3 5 1 7 8 4 2 0 6 4 4 5 8 6 2 8 9 6 7 8 5 3 5 9 7 7 7 2 4 1 1 0 8 4 7 8 9 9 8 7 6 3 2 4 9 4 2 0 3 2 0 8 7 8 9 6 7 8 8 2 2 1 2 0 6 1 9 7 0 7 4 6 0 6 3 1 2 7 4 5 9 4 3 7 2 4 3 0 3 4 4 5 7 6 7 5 7 6 2 9 6 6 8 8 4 3 0 7 0 4 2 2 0 8 1 3 4 6 5 7 2 9 4 0 7 2 5 6 0 0 5 6 6 5 5 3 8 7 0 1 1 4 3 3 4 6 6 9 4 3 8 7 2 5 7 1 7 4 7 9 4 5 6 3 0 1 8 1 0 0 2 1 6 7 6 1 5 3 2 9 8 0 6 1 5 5 2 4 0 2 4 6 7 2 1 7 5 1 8 5 1 2 8 8 9 4 1 4 7 3 4 6 3 2 9 1 8 3 5 0 5 1 8 2 3 2 2 8 3 2 3 7 5 1 5 6 6 6 3 5 1 9 3 6 1 4 7 1 0 5 1 5 6 0 0 2 2 4 2 7 6 8 4 3 9 1 0 7 9 5 5 0 4 0 7 7 5 6 9 5 1 0 2 0 2 4 2 6 8 6 4 7 4 0 0 6 2 2 5 1 7 0 4 1 3 3 1 0 9 0 7 3 2 9 3 5 4 7 3 4 3 7 1 8 0 2 4 4 6 9 7 4 2 1 7 5 6 8 5 6 8 2 9 1 3 4 8 9 1 1 4 6 1 7 4 1 1 0 7 8 0 4 2 4 6 9 1 4 0 8 0 0 0 1 1 5 5 1 7 8 3 1 5 6 0 9 9 2 2 6 2 2 0 6 8 8 7 9 3 7 7 5 8 9 7 1 6 4 3 3 3 8 6 0 6 7 1 5 1 3 3 3 7 5 9 5 4 6 4 9 6 3 6 4 2 5 7 9 2 0 2 7 0 9 7 6 8 8 3 9 2 6 4 9 4 5 7 
0 3 1 9 9 7 7 5 9 3 3 0 5 5 5 2 6 6 1 4 4 9 0 5 3 8 9 5 2 4 2 2 9 5 1 9 2 1 4 4 4 7 6 1 3 1 5 1 7 6 7 1 7 7 6 1 6 7 8 8 3 0 1 3 7 4 2 0 5 8 6 1 8 2 4 3 4 9 4 3 7 1 5 5 9 3 6 7 1 4 5 6 6 6 9 3 3 3 5 8 2 3 2 0 6 6 5 2 6 9 5 3 2 2 0 3 6 8 0 9 4 6 5 0 4 7 6 7 0 3 8 4 7 0 6 3 8 1 7 6 0 4 2 5 7 2 8 5 1 9 6 5 7 3 8 3 0 4 3 1 7 3 5 4 3 2 9 3 5 8 0 6 3 2 1 2 6 1 7 7 0 5 5 9 8 3 3 9 9 8 2 8 1 7 5 6 1 6 9 7 5 1 5 0 3 8 2 2 9 1 1 2 6 6 1 4 1 6 5 2 4 7 1 7 7 6 3 8 2 3 7 9 4 2 9 0 0 1 2 2 4 5 4 0 4 7 7 5 6 4 8 2 2 1 0 9 7 3 9 1 8 7 1 3 1 0 5 4 4 9 6 8 4 2 1 8 1 0 6 9 4 6 2 6 7 2 7 6 7 7 7 6 6 0 1 7 3 6 1 7 5 9 7 1 3 0 2 5 0 8 4 7 4 8 5 3 0 3 9 0 2 8 6 8 9 9 7 4 5 1 1 2 0 0 5 4 1 7 1 3 5 5 0 1 4 6 6 6 1 5 8 3 6 4 3 7 5 0 1 0 1 2 4 4 4 2 8 5 9 1 1 7 6 1 0 2 9 7 1 0 4 9 3 0 6 6 7 1 9 8 4 0 2 0 4 9 2 4 6 4 5 7 1 4 9 3 8 8 0 9 9 5 9 4 5 5 1 5 8 0 5 2 2 8 3 9 7 7 3 3 1 1 3 2 7 4 6 5 2 8 5 3 3 6 0 1 3 1 8 1 3 3 4 7 3 9 6 2 6 2 8 8 3 1 2 0 5 0 5 9 9 2 5 4 8 5 5 3 8 3 5 3 9 1 0 2 0 7 7 8 9 5 6 4 6 1 6 3 1 3 2 0 6 9 5 6 4 2 0 2 8 7 5 7 8 6 1 8 5 8 8 6 3 5 0 1 6 8 4 9 1 9 0 9 8 7 8 5 9 8 7 7 5 5 6 5 3 8 5 8 8 3 6 4 0 8 5 8 6 2 8 7 3 8 9 1 5 7 6 6 7 6 6 4 1 2 9 4 2 4 4 1 7 0 5 0 8 2 8 6 4 6 3 7 6 4 1 3 1 9 0 8 5 6 2 8 0 1 4 3 7 0 6 7 0 1 7 0 3 5 6 0 2 2 9 8 6 0 4 0 2 4 8 7 2 3 8 2 6 2 7 4 5 3 1 5 6 8 8 0 3 6 2 7 0 1 8 9 4 2 9 6 8 9 5 0 2 3 4 9 8 2 5 3 7 8 0 4 6 8 6 1 7 8 1 7 1 9 6 5 3 5 1 1 7 7 3 9 2 7 0 0 1 7 3 1 5 6 5 3 6 1 5 3 1 6 1 2 7 9 8 0 7 1 3 4 0 8 5 3 7 8 3 9 5 9 0 1 5 7 4 1 8 1 7 1 9 8 3 6 9 3 8 6 7 3 0 7 1 6 0 9 6 6 8 1 5 0 4 2 7 1 5 7 2 2 0 4 2 3 2 2 9 1 0 6 4 1 3 6 9 6 5 5 2 5 8 9 7 3 1 6 6 8 5 0 1 5 4 3 0 7 7 9 0 8 7 6 1 3 2 2 9 9 9 1 6 7 0 5 2 3 1 8 1 8 1 4 3 5 0 4 4 7 5 4 7 5 1 0 8 5 2 7 7 1 0 3 9 2 1 3 7 2 4 8 3 5 3 6 0 5 2 7 2 0 3 2 5 4 2 5 2 5 2 9 8 4 4 9 8 5 3 5 0 7 3 3 2 8 1 4 3 4 1 8 6 5 2 3 1 4 8 5 1 2 4 0 6 1 9 4 8 2 1 8 1 4 3 3 5 5 0 0 1 3 0 7 8 2 2 2 9 0 7 0 2 4 0 0 7 2 6 5 6 7 4 8 3 9 1 0 4 3 1 7 7 3 6 7 8 8 9 7 8 9 7 2 5 0 2 2 4 8 7 0 5 3 8 1 5 2 1 9 5 2 9 2 8 5 
0 6 4 1 5 4 2 4 7 7 4 1 1 8 2 1 1 9 6 9 0 1 1 2 3 9 6 2 1 4 7 3 2 3 5 7 8 9 2 7 7 6 8 0 7 2 1 8 2 8 9 2 9 3 4 2 2 1 6 5 5 4 9 8 7 6 5 7 5 7 6 4 6 7 5 5 9 6 5 1 6 6 4 6 9 8 0 1 9 7 7 7 3 8 7 2 4 4 2 1 4 8 6 0 5 1 7 5 9 4 6 6 0 2 4 2 1 6 5 2 5 4 9 8 2 8 1 8 3 5 0 7 3 6 9 9 9 6 6 8 2 4 6 4 7 0 6 0 9 2 2 4 6 4 3 1 4 6 9 7 1 9 4 6 7 3 7 6 1 3 5 5 0 1 0 9 4 8 9 3 0 3 7 9 9 2 0 4 0 1 1 3 1 8 0 8 1 7 7 5 3 2 0 5 5 2 4 9 1 3 2 1 8 2 2 8 4 4 4 7 6 7 0 9 5 0 9 9 0 6 4 5 0 6 0 6 9 4 7 0 9 2 3 7 4 8 7 0 2 1 7 0 9 8 1 4 0 1 3 0 9 9 5 2 6 7 0 7 1 7 7 0 1 2 8 7 0 5 0 5 7 9 5 8 9 9 2 0 2 8 2 1 9 0 5 7 7 5 4 9 5 3 1 6 6 9 6 8 7 6 3 6 5 1 4 5 0 8 7 2 8 9 5 8 1 1 5 9 6 0 0 3 3 1 2 1 3 8 0 0 6 3 6 1 4 2 8 6 0 5 8 9 7 4 7 8 5 2 9 3 4 9 9 8 1 1 9 4 1 9 6 7 5 2 0 1 4 1 8 6 6 6 5 5 2 4 4 7 9 3 3 3 5 2 3 8 5 5 4 8 6 0 7 1 4 9 5 0 0 3 6 9 1 4 4 4 8 0 1 9 6 6 5 1 0 8 1 7 5 5 5 2 5 2 5 9 4 0 9 4 5 7 3 7 1 0 1 2 2 4 1 8 1 8 1 3 7 2 1 4 9 8 6 4 3 4 5 7 6 4 1 2 2 7 1 5 9 2 7 1 8 1 2 9 9 5 5 8 8 8 3 9 6 1 4 1 7 9 8 4 6 2 8 0 1 1 5 0 3 5 1 1 6 5 3 7 1 0 6 1 8 9 0 4 2 6 8 0 6 6 6 4 8 4 6 1 5 1 1 0 6 5 3 4 0 8 2 1 8 8 4 6 9 5 3 1 1 1 3 9 9 9 5 0 5 1 1 2 3 3 4 1 0 8 8 0 6 0 4 7 0 8 5 1 5 8 4 7 1 8 8 1 9 4 1 5 5 2 7 0 7 4 4 7 2 2 0 0 4 4 9 4 4 5 5 2 5 1 1 7 9 9 0 9 5 3 6 3 7 5 3 5 9 9 4 3 1 4 4 7 0 5 3 5 0 0 9 6 2 0 5 1 9 5 2 5 8 8 8 5 4 3 2 3 3 7 9 6 1 3 4 2 0 7 9 1 8 8 9 0 8 4 3 9 9 6 6 9 6 6 6 0 0 9 6 5 6 5 3 7 0 9 1 0 9 2 3 7 0 2 9 0 8 4 0 9 2 8 8 9 5 5 1 7 4 9 2 2 6 7 1 6 7 3 9 6 5 4 5 8 9 6 0 7 0 2 7 5 1 7 4 6 4 7 3 0 7 7 2 3 4 4 2 1 9 3 9 6 7 4 6 6 0 7 4 1 9 3 6 2 2 2 0 7 1 3 7 8 2 2 4 9 6 8 2 5 1 2 3 8 6 0 5 9 7 1 2 8 6 0 3 8 2 3 5 5 9 5 4 1 7 0 0 3 8 5 0 9 7 5 9 5 5 6 4 4 7 8 5 3 8 8 4 2 1 9 8 0 4 4 2 1 4 4 6 4 1 8 5 8 4 4 6 1 1 2 6 0 1 1 6 9 1 0 2 2 9 0 3 6 4 7 9 0 3 8 6 5 6 1 5 2 7 3 4 8 6 2 1 9 5 7 0 6 9 2 0 8 4 5 6 0 2 8 2 8 6 8 5 4 9 2 9 7 6 5 7 4 7 8 3 4 7 5 2 6 8 2 7 4 0 5 7 2 3 9 2 9 8 7 6 9 2 5 8 8 0 6 4 9 6 9 3 6 4 7 2 2 1 1 9 1 7 6 6 0 7 8 2 7 8 8 7 0 3 7 8 5 5 4 4 2 3 9 0 7 6 2 2 7 
4 1 9 1 9 5 3 6 5 5 4 3 3 3 3 8 0 3 3 6 7 7 0 2 6 0 0 2 4 2 2 0 3 3 3 4 8 7 0 3 2 6 9 8 9 4 6 2 8 0 0 7 7 0 0 6 2 2 0 8 4 2 9 9 5 2 3 5 9 5 1 4 2 0 2 1 4 8 5 4 8 5 4 8 7 4 6 9 6 6 8 2 1 7 1 8 1 6 6 1 1 7 5 3 7 7 7 3 7 2 8 6 0 4 6 7 8 2 7 6 0 7 0 3 6 1 2 7 7 8 0 0 7 7 4 6 6 3 9 4 7 9 2 7 3 8 5 3 2 2 1 4 1 1 8 7 4 0 6 3 0 7 4 7 4 0 3 1 3 4 5 2 6 7 0 9 7 5 5 1 9 6 5 0 8 3 9 4 5 5 8 7 2 2 6 9 4 9 0 7 6 7 9 2 6 1 3 5 8 8 6 7 5 1 9 5 5 0 9 2 6 9 0 0 1 6 1 5 8 3 4 4 0 6 8 8 9 1 3 8 0 9 7 7 1 7 4 8 9 5 0 7 5 0 8 8 7 9 4 7 3 0 3 5 8 1 4 8 2 9 6 4 9 3 3 0 2 7 0 2 3 0 9 0 3 9 8 2 1 4 9 6 5 2 1 5 3 7 3 7 7 1 4 6 5 7 8 7 7 8 1 2 0 3 2 3 2 0 5 3 7 6 9 2 0 3 9 3 0 3 3 9 4 7 5 1 6 5 1 3 5 2 5 6 5 9 1 0 0 9 5 7 5 7 1 8 0 2 1 2 5 6 2 2 5 9 3 4 7 4 7 2 9 5 0 6 4 4 8 6 3 4 5 0 1 8 8 3 1 2 7 8 0 1 0 6 3 6 2 0 2 9 4 1 6 7 0 3 1 8 1 6 4 7 6 7 5 7 0 8 1 0 7 1 3 7 9 6 5 1 8 8 3 3 1 1 0 3 4 3 2 6 9 8 5 7 6 2 6 8 1 7 8 8 9 2 7 0 0 3 2 9 3 7 2 4 8 4 0 5 9 2 3 8 0 8 7 8 0 4 7 3 1 7 3 2 9 1 5 2 6 9 1 1 6 5 7 6 1 7 1 0 1 4 0 4 4 9 2 7 3 9 0 7 9 4 1 0 7 6 2 5 5 3 6 3 8 5 0 1 3 3 1 4 0 3 8 4 3 3 1 8 4 4 5 3 0 9 4 7 5 6 4 3 2 2 8 2 7 0 4 2 4 7 7 4 1 7 0 6 2 4 4 7 8 2 0 8 3 6 7 0 3 3 5 5 5 4 7 4 4 3 7 0 1 6 4 4 3 7 0 6 1 6 5 9 0 5 9 3 2 8 4 7 1 9 4 8 5 1 2 0 5 9 0 8 5 7 2 1 6 2 9 7 0 4 8 1 9 9 4 3 7 0 0 8 2 4 6 7 8 0 7 5 0 0 3 7 9 5 8 5 9 9 4 9 3 2 2 5 1 9 8 0 9 1 0 3 7 6 1 5 8 0 2 0 0 5 8 1 2 8 6 3 8 0 3 1 4 7 6 7 6 7 7 8 8 7 1 7 5 2 5 4 3 7 4 5 5 4 7 7 3 5 1 1 8 6 4 2 3 3 0 2 0 7 0 0 7 1 9 2 4 4 6 9 2 3 4 7 7 3 6 0 9 9 3 7 5 0 1 1 3 1 3 5 1 3 7 8 4 6 2 0 1 1 9 3 4 6 2 3 9 8 6 0 8 1 9 5 1 1 6 6 4 1 1 7 4 8 7 1 7 2 1 8 3 3 3 9 1 7 4 2 5 0 3 5 2 4 1 5 7 9 2 4 1 5 1 7 6 1 8 3 3 2 3 6 7 8 7 8 5 1 0 2 4 5 8 6 2 1 3 9 2 5 3 3 3 7 3 9 8 1 2 1 5 7 9 2 5 8 2 2 9 3 4 3 0 4 1 2 7 5 2 0 2 7 5 5 4 8 6 4 2 8 5 7 7 6 0 2 4 4 6 6 7 1 9 0 7 3 2 7 0 6 7 2 4 2 0 0 3 6 5 5 7 2 2 4 1 4 9 5 9 5 3 8 8 3 0 8 8 3 5 8 1 2 2 7 6 2 8 1 1 5 6 8 7 1 4 8 5 5 6 6 1 9 7 1 4 7 9 2 2 4 2 4 8 5 3 7 9 1 8 0 6 5 0 6 8 7 4 5 2 2 2 5 2 1 
7 8 8 8 1 1 5 3 7 3 0 0 2 0 4 1 0 2 8 1 8 8 0 5 3 2 7 5 8 1 8 7 0 7 5 3 0 2 6 9 8 7 9 0 7 5 3 9 8 3 2 6 1 2 3 5 7 3 2 5 4 1 4 4 0 1 7 0 4 6 9 2 5 0 2 4 6 8 3 4 1 6 2 3 0 8 0 7 1 2 4 5 3 8 0 3 0 9 5 6 5 6 8 2 7 2 6 5 0 0 1 2 8 3 7 0 1 7 8 2 9 4 0 5 3 0 0 5 1 8 1 9 4 1 1 3 3 8 8 6 0 9 0 0 5 7 0 8 6 0 3 5 5 3 2 0 5 5 5 6 3 8 5 9 1 9 3 6 9 3 2 9 5 2 9 0 1 1 0 7 2 3 5 7 6 7 7 1 4 4 0 7 4 7 9 5 6 4 1 5 7 4 6 4 8 7 4 0 9 5 7 3 0 2 0 7 2 9 0 6 3 0 6 7 0 5 2 8 9 5 6 8 9 2 3 0 2 9 0 1 6 7 6 7 2 6 6 4 5 6 0 0 9 6 9 1 3 1 9 4 6 5 3 8 0 8 8 4 7 0 7 4 7 3 3 9 9 9 3 6 7 6 8 6 4 7 9 0 8 9 4 6 6 9 6 8 7 6 2 5 6 9 1 6 2 4 7 3 3 3 9 0 9 7 9 5 4 8 5 4 9 0 3 8 1 1 6 9 8 9 4 6 0 7 2 3 1 0 8 6 3 8 8 4 7 7 9 4 8 7 0 9 7 3 7 8 7 4 9 5 5 5 3 5 2 6 0 3 8 9 1 3 9 0 7 8 7 8 4 7 5 5 7 4 0 4 5 7 0 4 4 5 0 8 3 4 6 5 0 4 6 1 9 7 1 6 6 1 6 2 8 2 7 7 8 0 4 3 7 4 0 4 0 2 2 5 6 8 0 8 4 9 0 3 6 3 1 4 4 7 7 5 1 6 4 0 6 8 5 6 3 7 0 5 9 4 0 8 2 2 6 8 1 8 1 0 2 4 4 8 1 1 5 5 8 2 7 4 0 2 2 5 2 2 0 3 6 2 1 0 7 0 8 0 0 1 0 2 5 5 3 9 6 0 6 6 2 3 1 5 7 3 0 9 8 3 3 4 5 6 7 4 6 5 5 7 9 5 1 6 0 6 5 9 9 1 5 3 6 8 8 4 4 1 5 4 4 8 0 1 7 7 8 3 5 3 2 4 0 6 0 3 4 8 2 3 1 9 9 8 0 9 4 6 0 9 0 6 0 0 0 7 8 8 2 3 3 7 9 3 5 1 8 9 1 2 5 3 2 4 3 4 5 9 0 6 8 2 4 0 2 4 9 2 4 2 7 9 1 8 3 6 0 1 7 1 4 2 6 8 8 1 4 4 0 4 2 1 8 8 1 0 3 1 5 9 5 4 9 6 3 4 2 5 7 1 8 3 4 5 1 4 6 7 0 7 1 2 0 9 1 1 2 6 4 9 7 9 5 8 7 0 2 1 5 2 3 4 5 9 1 9 3 9 6 4 8 0 8 8 1 1 2 3 9 6 4 9 8 0 7 5 2 2 9 8 4 2 4 9 1 5 0 6 6 7 0 5 7 1 3 8 4 5 4 4 4 0 5 2 2 2 9 5 4 8 5 0 2 9 2 3 6 2 0 2 1 2 7 8 5 3 9 0 8 5 6 2 7 1 6 0 5 8 7 2 8 2 2 1 3 6 6 9 9 8 3 0 3 3 1 8 6 2 0 4 9 8 9 6 1 5 8 7 5 5 1 4 7 5 7 2 2 3 1 1 4 7 3 7 0 4 7 6 8 8 0 7 6 1 4 0 9 4 7 4 0 0 8 9 5 5 2 7 1 5 0 5 2 4 2 2 0 9 8 9 9 1 6 6 2 2 6 1 7 5 6 7 7 6 8 2 2 0 2 5 6 2 0 8 8 4 3 9 3 1 8 3 4 6 1 7 9 9 8 6 6 6 3 3 3 3 7 7 4 9 4 2 4 4 2 2 8 5 3 3 9 1 8 3 8 1 2 7 0 1 5 8 9 0 3 4 3 1 3 9 2 7 1 6 1 6 1 1 1 4 7 2 8 5 8 6 7 0 5 9 3 2 8 3 2 3 7 5 4 3 5 9 0 8 7 4 4 8 7 8 5 4 2 3 0 0 1 9 1 8 8 4 0 8 7 2 4 7 9 0 0 6 9 2 
7 7 6 1 5 4 1 0 8 4 5 0 4 6 1 5 4 2 0 6 2 9 8 6 8 0 7 8 6 6 1 3 3 9 7 1 5 8 3 6 4 9 6 9 7 0 4 2 2 6 8 4 8 9 1 6 1 0 5 9 6 8 5 2 9 2 5 5 2 8 1 7 9 9 8 7 9 2 1 3 1 1 8 9 0 1 5 1 3 2 1 9 2 6 3 4 0 0 9 4 9 2 1 0 3 9 9 5 4 0 8 7 2 8 8 4 1 3 6 4 8 9 6 2 7 1 6 9 2 7 3 3 1 5 3 5 6 3 2 2 5 0 9 7 1 7 2 4 3 0 1 3 1 7 7 0 0 6 9 2 3 2 7 7 9 1 2 8 6 6 0 1 8 2 1 9 1 5 6 6 7 7 1 8 6 9 0 6 7 9 1 0 3 8 9 5 1 1 3 7 9 5 1 8 9 4 9 3 9 5 1 8 2 3 8 0 4 8 7 1 9 0 3 4 8 3 9 0 6 4 9 6 2 2 6 3 8 5 6 9 3 0 7 7 3 5 8 9 3 7 2 4 7 5 9 7 0 8 9 9 5 1 5 7 3 3 0 4 8 9 3 1 9 1 9 4 6 7 5 2 6 7 6 3 4 5 0 5 6 0 4 1 1 1 0 6 4 2 0 4 1 6 6 2 7 7 8 3 6 3 7 2 0 4 5 7 1 7 4 7 9 8 8 2 1 8 9 7 3 1 1 4 9 9 9 6 6 7 2 2 1 9 4 3 3 1 0 5 9 4 4 8 4 3 1 7 3 2 4 6 5 8 3 5 9 2 3 8 1 5 0 2 5 7 6 0 0 8 7 9 3 2 0 9 7 3 7 2 7 3 1 4 3 4 1 3 8 5 1 9 2 3 4 9 2 2 0 3 0 9 4 5 1 6 7 0 1 4 3 8 9 6 5 5 0 8 8 0 5 1 1 8 6 5 7 9 9 9 2 0 9 8 7 2 5 4 3 6 0 8 7 2 4 4 7 6 2 7 8 8 8 9 6 4 7 5 5 6 5 9 8 4 8 6 8 5 2 1 3 3 1 2 5 5 6 4 3 1 1 1 9 1 3 7 5 0 2 3 6 9 2 5 5 0 3 4 7 5 7 1 8 9 3 5 6 2 1 2 3 2 3 4 3 8 1 1 8 5 4 7 5 8 2 2 1 7 6 8 2 6 1 3 7 5 8 5 9 2 7 2 4 3 8 0 1 9 3 0 6 7 9 3 5 3 6 6 0 2 7 2 0 8 5 7 5 6 3 4 8 0 8 4 5 6 4 7 7 7 9 4 6 8 7 4 1 3 2 3 8 9 5 8 0 3 8 5 1 1 2 9 3 2 5 9 9 2 8 8 9 9 4 8 7 4 2 0 9 6 5 9 8 0 0 8 5 8 5 6 9 7 7 4 0 3 3 1 5 1 1 6 0 6 4 9 2 8 1 1 7 6 1 5 9 1 5 4 1 0 1 0 0 0 6 2 3 0 5 0 3 6 7 6 4 3 7 6 4 1 0 1 9 3 8 8 4 3 5 7 5 8 9 7 8 5 9 2 5 4 2 1 1 1 9 7 5 6 6 1 9 6 2 9 9 0 7 5 5 2 2 2 0 1 0 9 6 9 3 4 6 7 7 9 9 6 6 6 4 2 7 4 8 1 3 9 3 2 4 8 7 8 2 7 9 2 8 8 4 1 4 0 1 1 9 0 9 5 8 5 0 5 9 0 8 4 0 1 7 4 1 4 5 3 3 4 6 2 4 2 5 8 2 8 1 3 0 2 0 8 8 0 5 9 1 3 4 1 4 3 7 5 9 2 9 2 9 7 6 5 9 4 4 3 2 7 6 3 0 6 1 0 7 9 9 0 2 3 3 9 6 2 4 7 5 5 0 6 4 8 1 3 2 7 6 7 7 2 0 9 1 3 9 8 4 8 8 7 4 1 6 0 3 2 8 0 0 0 8 4 8 2 8 3 1 6 0 8 1 2 7 2 7 8 2 2 7 0 9 1 3 7 3 8 1 3 1 1 5 1 6 4 3 6 9 5 4 1 5 5 3 5 9 0 3 1 2 2 3 3 5 8 2 9 9 4 4 0 7 0 1 3 6 7 1 5 4 6 8 1 1 1 6 3 3 2 4 8 6 8 1 2 6 6 3 5 2 7 7 9 9 1 5 5 8 6 2 4 2 0 5 6 3 2 9 7 6 5 5 2 3 8 
[...]
dram[2]:         0         0         0         0         0         0         0         0         0         0         0         0         0         0         0         0 
dram[3]:         0         0         0         0         0         0         0         0         0         0         0         0         0         0         0         0 
dram[4]:         0         0         0         0         0         0         0         0         0         0         0         0         0         0         0         0 
dram[5]:         0         0         0         0         0         0         0         0         0         0         0         0         0         0         0         0 
total accesses: 0
min_bank_accesses = 0!
min_chip_accesses = 0!
number of total read accesses:
dram[0]:        35        32        32        32        40        38        32        32        32        32        32        32        32        32        32        32 
dram[1]:        34        32        32        32        40        38        32        32        32        32        32        32        32        32        32        32 
dram[2]:        34        32        32        32        40        40        32        32        32        32        32        32        32        32        32        32 
dram[3]:        34        32        32        32        38        40        32        32        32        32        32        32        32        32        32        32 
dram[4]:        33        32        32        32        38        40        32        32        32        32        32        32        32        32        32        32 
dram[5]:        32        32        32        32        38        40        32        32        32        32        32        32        32        32        32        32 
total reads: 3168
bank skew: 40/32 = 1.25
chip skew: 530/526 = 1.01
number of total write accesses:
dram[0]:         0         0         0         0         8         6         0         0         0         0         0         0         0         0         0         0 
dram[1]:         0         0         0         0         8         4         0         0         0         0         0         0         0         0         0         0 
dram[2]:         0         0         0         0         8         4         0         0         0         0         0         0         0         0         0         0 
dram[3]:         0         0         0         0         8         4         0         0         0         0         0         0         0         0         0         0 
dram[4]:         0         0         0         0         4         5         0         0         0         0         0         0         0         0         0         0 
dram[5]:         0         0         0         0         4         4         0         0         0         0         0         0         0         0         0         0 
total reads: 67
min_bank_accesses = 0!
chip skew: 14/8 = 1.75
average mf latency per bank:
dram[0]:        365       343       303       322       397       428       341       337       309       318       329       309       327       332       318       315
dram[1]:        296       302       323       330       410       399       330       325       336       299       315       332       327       307       304       355
dram[2]:        315       322       315       317       453       419       327       314       320       342       300       302       331       353       322       303
dram[3]:        299       330       335       309       428       464       310       337       320       322       311       314       334       313       319       321
dram[4]:        299       295       322       351       380       440       335       314       302       323       334       300       311       319       322       334
dram[5]:        318       318       333       329       416       466       312       312       349       318       299       309       324       333       298       313
maximum mf latency per bank:
dram[0]:        297       292       297       292       312       312       298       299       293       302       292       291       293       297       301       294
dram[1]:        297       287       291       304       316       327       287       299       300       293       296       288       297       288       289       301
dram[2]:        291       290       293       292       307       313       288       314       300       287       285       291       299       294       290       297
dram[3]:        302       288       291       296       294       309       291       308       296       296       294       290       288       292       291       298
dram[4]:        294       285       298       291       299       319       297       294       288       292       288       288       286       296       288       293
dram[5]:        293       293       294       304       304       312       306       291       305       325       286       293       296       310       309       302
Memory Partition 0: 
Cache L2_bank_000:
MSHR contents

Cache L2_bank_001:
MSHR contents

In Dram Latency Queue (total = 0): 
DRAM[0]: 16 bks, busW=4 BL=8 CL=12, tRRD=2 tCCD=6, tRCD=12 tRAS=28 tRP=12 tRC=40
n_cmd=88260 n_nop=87157 n_act=21 n_pre=5 n_req=543 n_rd=1058 n_write=19 bw_util=0.02441
n_activity=6517 dram_eff=0.3305
bk0: 70a 88018i bk1: 64a 88097i bk2: 64a 88100i bk3: 64a 88083i bk4: 80a 87924i bk5: 76a 87957i bk6: 64a 88102i bk7: 64a 88071i bk8: 64a 88090i bk9: 64a 88092i bk10: 64a 88102i bk11: 64a 88099i bk12: 64a 88103i bk13: 64a 88081i bk14: 64a 88107i bk15: 64a 88104i 
dram_util_bins: 0 0 0 0 0 0 0 0 0 0
dram_eff_bins: 0 0 0 0 0 0 0 0 0 0
mrqq: max=4 avg=0.00701337
Memory Partition 1: 
Cache L2_bank_002:
MSHR contents

Cache L2_bank_003:
MSHR contents

In Dram Latency Queue (total = 0): 
DRAM[1]: 16 bks, busW=4 BL=8 CL=12, tRRD=2 tCCD=6, tRCD=12 tRAS=28 tRP=12 tRC=40
n_cmd=88260 n_nop=87164 n_act=19 n_pre=3 n_req=540 n_rd=1056 n_write=18 bw_util=0.02434
n_activity=6440 dram_eff=0.3335
bk0: 68a 88069i bk1: 64a 88100i bk2: 64a 88098i bk3: 64a 88068i bk4: 80a 87947i bk5: 76a 87954i bk6: 64a 88099i bk7: 64a 88079i bk8: 64a 88099i bk9: 64a 88099i bk10: 64a 88102i bk11: 64a 88100i bk12: 64a 88102i bk13: 64a 88100i bk14: 64a 88103i bk15: 64a 88087i 
dram_util_bins: 0 0 0 0 0 0 0 0 0 0
dram_eff_bins: 0 0 0 0 0 0 0 0 0 0
mrqq: max=5 avg=0.00693406
Memory Partition 2: 
Cache L2_bank_004:
MSHR contents

Cache L2_bank_005:
MSHR contents

In Dram Latency Queue (total = 0): 
DRAM[2]: 16 bks, busW=4 BL=8 CL=12, tRRD=2 tCCD=6, tRCD=12 tRAS=28 tRP=12 tRC=40
n_cmd=88260 n_nop=87160 n_act=19 n_pre=3 n_req=542 n_rd=1060 n_write=18 bw_util=0.02443
n_activity=6403 dram_eff=0.3367
bk0: 68a 88067i bk1: 64a 88095i bk2: 64a 88101i bk3: 64a 88082i bk4: 80a 87933i bk5: 80a 87963i bk6: 64a 88098i bk7: 64a 88055i bk8: 64a 88087i bk9: 64a 88077i bk10: 64a 88108i bk11: 64a 88108i bk12: 64a 88107i bk13: 64a 88093i bk14: 64a 88099i bk15: 64a 88080i 
dram_util_bins: 0 0 0 0 0 0 0 0 0 0
dram_eff_bins: 0 0 0 0 0 0 0 0 0 0
mrqq: max=3 avg=0.00567641
Memory Partition 3: 
Cache L2_bank_006:
MSHR contents

Cache L2_bank_007:
MSHR contents

In Dram Latency Queue (total = 0): 
DRAM[3]: 16 bks, busW=4 BL=8 CL=12, tRRD=2 tCCD=6, tRCD=12 tRAS=28 tRP=12 tRC=40
n_cmd=88260 n_nop=87165 n_act=19 n_pre=3 n_req=540 n_rd=1056 n_write=17 bw_util=0.02431
n_activity=6267 dram_eff=0.3424
bk0: 68a 88073i bk1: 64a 88103i bk2: 64a 88105i bk3: 64a 88079i bk4: 76a 87932i bk5: 80a 87943i bk6: 64a 88102i bk7: 64a 88063i bk8: 64a 88094i bk9: 64a 88095i bk10: 64a 88107i bk11: 64a 88114i bk12: 64a 88098i bk13: 64a 88082i bk14: 64a 88087i bk15: 64a 88057i 
dram_util_bins: 0 0 0 0 0 0 0 0 0 0
dram_eff_bins: 0 0 0 0 0 0 0 0 0 0
mrqq: max=6 avg=0.00799909
Memory Partition 4: 
Cache L2_bank_008:
MSHR contents

Cache L2_bank_009:
MSHR contents

In Dram Latency Queue (total = 0): 
DRAM[4]: 16 bks, busW=4 BL=8 CL=12, tRRD=2 tCCD=6, tRCD=12 tRAS=28 tRP=12 tRC=40
n_cmd=88260 n_nop=87171 n_act=19 n_pre=3 n_req=536 n_rd=1054 n_write=13 bw_util=0.02418
n_activity=6294 dram_eff=0.3391
bk0: 66a 88081i bk1: 64a 88099i bk2: 64a 88095i bk3: 64a 88069i bk4: 76a 87986i bk5: 80a 87950i bk6: 64a 88092i bk7: 64a 88085i bk8: 64a 88106i bk9: 64a 88092i bk10: 64a 88108i bk11: 64a 88110i bk12: 64a 88101i bk13: 64a 88076i bk14: 64a 88099i bk15: 64a 88072i 
dram_util_bins: 0 0 0 0 0 0 0 0 0 0
dram_eff_bins: 0 0 0 0 0 0 0 0 0 0
mrqq: max=3 avg=0.00592567
Memory Partition 5: 
Cache L2_bank_010:
MSHR contents

Cache L2_bank_011:
MSHR contents

In Dram Latency Queue (total = 0): 
DRAM[5]: 16 bks, busW=4 BL=8 CL=12, tRRD=2 tCCD=6, tRCD=12 tRAS=28 tRP=12 tRC=40
n_cmd=88260 n_nop=87176 n_act=18 n_pre=2 n_req=534 n_rd=1052 n_write=12 bw_util=0.02411
n_activity=6242 dram_eff=0.3409
bk0: 64a 88106i bk1: 64a 88104i bk2: 64a 88092i bk3: 64a 88060i bk4: 76a 87990i bk5: 80a 87953i bk6: 64a 88098i bk7: 64a 88097i bk8: 64a 88105i bk9: 64a 88097i bk10: 64a 88102i bk11: 64a 88097i bk12: 64a 88085i bk13: 64a 88086i bk14: 64a 88107i bk15: 64a 88070i 
dram_util_bins: 0 0 0 0 0 0 0 0 0 0
dram_eff_bins: 0 0 0 0 0 0 0 0 0 0
mrqq: max=3 avg=0.00612962

========= L2 cache stats =========
L2_cache_bank[0]: Access = 405, Miss = 267, Miss_rate = 0.659, Pending_hits = 51, Reservation_fails = 342
L2_cache_bank[1]: Access = 361, Miss = 262, Miss_rate = 0.726, Pending_hits = 51, Reservation_fails = 0
L2_cache_bank[2]: Access = 397, Miss = 266, Miss_rate = 0.670, Pending_hits = 45, Reservation_fails = 0
L2_cache_bank[3]: Access = 348, Miss = 262, Miss_rate = 0.753, Pending_hits = 47, Reservation_fails = 0
L2_cache_bank[4]: Access = 405, Miss = 266, Miss_rate = 0.657, Pending_hits = 57, Reservation_fails = 191
L2_cache_bank[5]: Access = 357, Miss = 264, Miss_rate = 0.739, Pending_hits = 42, Reservation_fails = 0
L2_cache_bank[6]: Access = 396, Miss = 264, Miss_rate = 0.667, Pending_hits = 48, Reservation_fails = 92
L2_cache_bank[7]: Access = 366, Miss = 264, Miss_rate = 0.721, Pending_hits = 46, Reservation_fails = 0
L2_cache_bank[8]: Access = 358, Miss = 263, Miss_rate = 0.735, Pending_hits = 43, Reservation_fails = 0
L2_cache_bank[9]: Access = 363, Miss = 264, Miss_rate = 0.727, Pending_hits = 45, Reservation_fails = 0
L2_cache_bank[10]: Access = 350, Miss = 262, Miss_rate = 0.749, Pending_hits = 46, Reservation_fails = 0
L2_cache_bank[11]: Access = 365, Miss = 264, Miss_rate = 0.723, Pending_hits = 43, Reservation_fails = 0
L2_total_cache_accesses = 4471
L2_total_cache_misses = 3168
L2_total_cache_miss_rate = 0.7086
L2_total_cache_pending_hits = 564
L2_total_cache_reservation_fails = 625
L2_total_cache_breakdown:
	L2_cache_stats_breakdown[GLOBAL_ACC_R][HIT] = 356
	L2_cache_stats_breakdown[GLOBAL_ACC_R][HIT_RESERVED] = 510
	L2_cache_stats_breakdown[GLOBAL_ACC_R][MISS] = 3126
	L2_cache_stats_breakdown[CONST_ACC_R][HIT] = 11
	L2_cache_stats_breakdown[CONST_ACC_R][HIT_RESERVED] = 3
	L2_cache_stats_breakdown[CONST_ACC_R][MISS] = 1
	L2_cache_stats_breakdown[CONST_ACC_R][RESERVATION_FAIL] = 109
	L2_cache_stats_breakdown[GLOBAL_ACC_W][HIT] = 262
	L2_cache_stats_breakdown[GLOBAL_ACC_W][HIT_RESERVED] = 35
	L2_cache_stats_breakdown[GLOBAL_ACC_W][MISS] = 32
	L2_cache_stats_breakdown[INST_ACC_R][HIT] = 110
	L2_cache_stats_breakdown[INST_ACC_R][HIT_RESERVED] = 16
	L2_cache_stats_breakdown[INST_ACC_R][MISS] = 9
	L2_cache_stats_breakdown[INST_ACC_R][RESERVATION_FAIL] = 516
L2_cache_data_port_util = 0.003
L2_cache_fill_port_util = 0.016

icnt_total_pkts_mem_to_simt=21009
icnt_total_pkts_simt_to_mem=5346
LD_mem_lat_dist  0 0 0 0 0 0 0 0 0 0 0 0 0 0 0 0 0 0 0 0 0 0 0 0 0 0 0
ST_mem_lat_dist  0 0 0 0 0 0 0 0 0 0 0 0 0 0 0 0 0 0 0 0 0 0 0 0 0 0 0
----------------------------Interconnect-DETAILS--------------------------------
Class 0:
Packet latency average = 13.8824
	minimum = 6
	maximum = 49
Network latency average = 13.1103
	minimum = 6
	maximum = 43
Slowest packet = 7345
Flit latency average = 13.2865
	minimum = 6
	maximum = 39
Slowest flit = 23135
Fragmentation average = 0
	minimum = 0
	maximum = 0
Injected packet rate average = 0.00510834
	minimum = 0 (at node 0)
	maximum = 0.0152972 (at node 9)
Accepted packet rate average = 0.00510834
	minimum = 0 (at node 0)
	maximum = 0.0152972 (at node 9)
Injected flit rate average = 0.0150866
	minimum = 0 (at node 0)
	maximum = 0.0287553 (at node 26)
Accepted flit rate average= 0.0150866
	minimum = 0 (at node 0)
	maximum = 0.0714704 (at node 9)
Injected packet length average = 2.95333
Accepted packet length average = 2.95333
Total in-flight flits = 0 (0 measured)
====== Overall Traffic Statistics ======
====== Traffic class 0 ======
Packet latency average = 13.5379 (5 samples)
	minimum = 6 (5 samples)
	maximum = 52.8 (5 samples)
Network latency average = 12.7822 (5 samples)
	minimum = 6 (5 samples)
	maximum = 45.6 (5 samples)
Flit latency average = 12.7878 (5 samples)
	minimum = 6 (5 samples)
	maximum = 41.6 (5 samples)
Fragmentation average = 0 (5 samples)
	minimum = 0 (5 samples)
	maximum = 0 (5 samples)
Injected packet rate average = 0.00496597 (5 samples)
	minimum = 0 (5 samples)
	maximum = 0.0146566 (5 samples)
Accepted packet rate average = 0.00496597 (5 samples)
	minimum = 0 (5 samples)
	maximum = 0.0146566 (5 samples)
Injected flit rate average = 0.0146373 (5 samples)
	minimum = 0 (5 samples)
	maximum = 0.0288 (5 samples)
Accepted flit rate average = 0.0146373 (5 samples)
	minimum = 0 (5 samples)
	maximum = 0.0686854 (5 samples)
Injected packet size average = 2.94753 (5 samples)
Accepted packet size average = 2.94753 (5 samples)
Hops average = 1 (5 samples)
----------------------------END-of-Interconnect-DETAILS-------------------------


gpgpu_simulation_time = 0 days, 0 hrs, 0 min, 20 sec (20 sec)
gpgpu_simulation_rate = 335134 (inst/sec)
gpgpu_simulation_rate = 3343 (cycle/sec)
5 4 5 7 0 3 0 8 2 2 6 3 8 9 7 5 9 0 6 9 5 0 1 5 9 4 4 3 9 9 0 4 3 7 3 6 0 5 6 4 7 3 9 5 4 9 0 3 9 9 5 4 1 6 9 2 1 6 5 2 5 7 8 0 6 1 8 7 6 5 1 5 0 3 2 4 2 5 8 1 6 5 7 7 3 9 0 6 5 7 8 0 7 8 2 3 1 1 2 9 6 6 4 6 9 9 2 1 4 2 4 0 7 1 9 1 2 9 7 7 9 8 9 6 6 2 1 8 3 4 7 9 0 4 7 1 5 9 2 1 2 8 1 1 9 2 4 2 4 2 1 3 2 1 1 8 3 4 8 6 8 8 7 0 4 4 1 9 5 5 0 9 3 3 3 5 7 7 9 1 1 0 4 3 3 7 4 6 2 4 4 2 4 1 5 0 7 6 9 5 2 1 6 7 6 9 2 4 7 3 5 0 4 2 6 9 1 0 6 3 6 0 8 1 4 3 1 1 1 3 8 5 6 5 3 5 4 7 9 3 1 6 4 7 8 0 6 0 2 4 5 8 5 5 1 1 8 5 2 0 0 3 5 8 8 0 3 2 8 2 6 1 9 2 0 9 2 6 1 6 1 9 6 8 4 0 9 5 7 3 7 7 6 4 5 6 5 1 9 5 3 7 8 4 9 8 6 3 4 9 1 7 8 7 7 5 7 8 2 6 2 9 3 0 3 1 7 0 2 8 5 7 7 3 4 6 3 0 1 8 1 4 7 2 1 5 7 1 3 1 7 7 0 3 0 5 6 9 6 0 7 3 9 4 9 3 2 2 5 5 2 7 9 0 1 2 7 8 5 2 1 5 0 1 0 2 8 6 1 4 8 8 0 7 4 9 3 8 3 0 3 6 9 4 8 0 6 7 0 2 9 1 9 9 2 9 3 1 7 4 7 5 4 7 4 0 8 7 8 4 0 1 2 9 7 2 0 4 9 0 8 8 2 7 0 6 8 3 9 5 8 9 2 4 8 6 5 9 6 3 3 8 7 7 7 4 9 7 0 8 0 0 6 2 9 8 0 7 2 0 4 2 1 6 6 9 5 3 8 3 9 3 1 8 0 8 4 9 8 5 7 8 7 6 0 7 4 2 6 8 4 1 0 5 7 9 5 4 4 3 7 3 7 8 3 9 9 8 9 7 5 8 5 2 4 7 1 1 9 8 9 4 9 2 1 8 3 6 3 7 2 2 3 1 3 6 0 2 4 1 1 1 0 8 4 4 5 5 7 6 5 7 2 4 1 4 5 4 2 0 3 6 2 6 7 5 5 0 9 1 1 2 3 1 0 9 8 7 6 5 6 2 4 0 8 7 6 3 3 9 3 7 7 8 5 7 5 2 9 7 4 0 9 7 4 2 8 4 1 4 1 7 6 8 0 7 5 6 0 9 7 6 6 5 6 3 4 1 6 3 0 0 3 0 9 9 4 7 3 5 3 7 5 0 5 5 9 0 3 9 9 1 7 7 8 5 3 2 9 9 5 9 1 0 1 2 2 5 1 7 3 4 4 8 6 9 3 5 2 8 7 3 9 6 1 9 2 4 1 1 5 8 2 6 9 4 8 3 9 1 0 2 5 5 2 2 6 7 9 8 6 6 2 5 3 5 5 7 1 8 8 6 7 2 4 8 6 4 1 6 5 3 0 0 8 3 4 7 0 4 5 6 2 9 4 7 4 1 4 5 1 4 3 8 7 7 8 3 1 1 1 6 5 4 9 5 9 5 2 9 1 0 8 4 9 4 1 6 7 8 3 8 2 7 7 9 4 7 5 8 9 8 4 6 2 5 3 1 3 8 3 4 8 3 8 9 7 2 7 6 0 1 4 4 8 3 4 4 1 1 2 2 9 9 0 2 6 3 5 9 1 8 4 1 3 4 3 0 6 2 6 8 3 3 3 3 6 9 0 7 0 2 1 1 3 1 5 0 7 1 1 0 1 7 4 5 2 7 7 0 9 6 9 5 9 4 0 5 3 0 5 5 5 8 6 0 2 4 2 9 7 4 1 8 1 5 5 5 4 3 6 6 1 7 1 0 1 3 7 6 4 4 3 1 3 1 1 7 5 6 8 2 2 9 3 3 5 8 9 1 3 7 7 4 6 8 6 7 2 6 5 8 0 0 1 5 1 4 2 7 0 0 1 2 2 4 8 9 5 9 0 0 6 8 7 2 8 3 1 0 1 8 0 4 8 1 9 9 8 4 
146 154 147 144 142 142 146 147 149 151 149 149 148 150 143 153 151 148 151 148 147 155 149 143 148 149 147 143 141 145 139 141 144 142 147 138 142 142 141 137 135 130 135 124 130 120 116 124 121 124 118 123 120 118 122 123 121 147 148 148 144 138 135 140 141 138 141 141 141 147 151 151 149 149 151 150 150 149 148 147 149 133 138 136 138 143 144 138 132 140 131 137 131 135 135 146 137 142 143 142 149 141 144 149 148 147 143 150 156 154 156 159 159 155 144 143 143 144 152 147 152 145 140 138 142 142 137 135 141 148 138 136 134 139 136 136 138 139 133 140 134 141 140 145 147 143 145 138 141 141 137 145 138 142 142 127 131 133 127 124 131 124 132 128 146 147 144 145 145 147 148 150 149 148 143 144 143 141 145 144 143 141 145 147 150 151 158 151 155 147 146 145 144 144 150 144 143 144 149 149 150 154 155 154 152 149 150 149 154 156 149 151 144 150 145 141 149 152 151 153 152 149 151 147 149 155 155 149 158 155 156 155 159 154 150 141 148 146 147 148 151 154 150 155 154 155 152 150 155 161 162 159 151 158 151 158 154 145 149 145 145 141 144 145 155 153 151 159 155 154 145 153 146 148 143 140 143 146 145 143 137 136 137 131 130 126 132 142 133 138 149 150 149 150 150 158 164 162 154 160 154 157 163 164 154 155 151 156 156 138 128 127 127 129 131 130 128 126 125 125 123 116 119 119 116 129 124 128 126 134 134 136 131 136 137 132 138 138 135 134 133 129 124 131 139 136 135 134 135 133 130 129 136 135 143 136 142 139 144 138 143 146 150 148 148 145 141 147 146 149 151 139 140 138 140 141 157 148 165 159 155 150 154 150 143 141 139 136 127 131 136 137 129 138 135 129 136 141 138 132 136 140 139 142 141 148 143 146 150 148 146 137 143 140 139 139 133 139 141 141 135 141 135 139 146 148 147 150 154 146 151 157 158 154 156 160 152 157 160 153 162 164 160 163 156 155 158 158 149 156 154 150 155 159 158 161 164 163 165 161 157 153 150 156 161 158 154 150 154 153 150 151 152 154 155 146 148 148 142 144 146 149 143 141 144 138 144 140 149 148 143 137 140 138 139 137 135 142 146 153 148 151 157 148 144 140 146 144 139 143 150 150 142 150 149 156 157 149 144 140 149 142 130 136 132 138 129 133 136 145 150 149 149 150 148 150 146 148 144 147 141 143 146 136 137 142 137 136 140 137 135 131 134 137 137 135 136 144 137 141 139 139 141 141 147 164 165 167 166 158 163 164 162 153 153 148 145 147 146 145 144 141 145 147 152 145 148 150 148 155 150 154 149 143 142 147 147 144 152 146 150 151 148 151 149 160 158 154 152 150 155 154 150 148 143 143 145 150 149 149 152 149 156 153 145 149 147 150 156 157 150 152 147 149 149 150 150 156 145 143 147 143 135 135 141 134 132 130 129 128 126 124 130 133 136 132 139 138 131 132 141 139 145 150 147 142 141 135 128 130 135 131 134 135 136 141 141 150 143 152 151 151 155 159 141 139 136 129 133 133 134 136 145 144 140 140 131 132 123 125 129 134 131 130 126 135 131 135 147 146 141 140 137 143 148 146 149 141 150 152 151 153 152 150 149 153 158 161 158 160 155 160 153 155 152 151 138 147 145 139 149 144 149 149 149 149 157 153 151 156 151 154 151 151 155 148 145 146 142 146 145 146 140 134 137 136 141 137 137 141 140 136 143 133 136 134 137 136 137 143 137 139 140 131 131 138 133 130 145 143 145 134 136 140 136 143 140 132 135 135 141 137 131 134 129 133 122 129 122 141 141 145 145 147 145 143 148 150 145 143 148 148 145 149 150 150 155 146 157 158 158 157 157 161 149 155 156 158 159 154 156 155 149 146 151 150 147 142 146 138 151 157 162 152 159 159 152 156 150 148 147 151 153 149 145 150 150 146 150 155 148 147 151 141 144 145 141 143 146 146 143 148 147 148 149 147 149 147 144 138 144 137 142 140 143 131 134 132 134 143 137 147 143 143 140 149 139 136 134 134 139 138 134 135 134 131 134 135 136 131 135 136 134 139 132 134 128 133 137 141 138 142 140 141 147 149 149 147 153 150 163 154 160 158 163 158 162 156 151 159 159 159 156 155 159 150 149 147 143 139 141 141 141 141 140 143 140 141 139 134 141 132 129 134 129 135 121 119 125 123 119 127 121 122 119 118 116 119 111 114 112 113 114 118 136 130 134 134 141 150 
